@<TRIPOS>MOLECULE
benzene
 12 12 0 0 0
SMALL
GASTEIGER

@<TRIPOS>ATOM
      1 C          -2.4242    1.1348   -0.0000 C.ar    1  UNL1       -0.0618
      2 C          -3.6983    0.5672   -0.0000 C.ar    1  UNL1       -0.0618
      3 C          -3.8438   -0.8200   -0.0000 C.ar    1  UNL1       -0.0618
      4 C          -2.7152   -1.6396   -0.0000 C.ar    1  UNL1       -0.0618
      5 C          -1.4411   -1.0720   -0.0000 C.ar    1  UNL1       -0.0618
      6 C          -1.2956    0.3152   -0.0000 C.ar    1  UNL1       -0.0618
      7 H          -2.3108    2.2156   -0.0000 H       1  UNL1        0.0618
      8 H          -4.5776    1.2058   -0.0000 H       1  UNL1        0.0618
      9 H          -4.8365   -1.2622   -0.0000 H       1  UNL1        0.0618
     10 H          -2.8286   -2.7204   -0.0000 H       1  UNL1        0.0618
     11 H          -0.5618   -1.7106    0.0000 H       1  UNL1        0.0618
     12 H          -0.3029    0.7574    0.0000 H       1  UNL1        0.0618
@<TRIPOS>BOND
     1     1     2   ar
     2     2     3   ar
     3     3     4   ar
     4     4     5   ar
     5     5     6   ar
     6     6     1   ar
     7     1     7    1
     8     2     8    1
     9     3     9    1
    10     4    10    1
    11     5    11    1
    12     6    12    1
