@<TRIPOS>MOLECULE
*****
 19 20 0 0 0
SMALL
GASTEIGER

@<TRIPOS>ATOM
      1 C           2.0885   -0.0209    0.1357 C.3     1  UNL111      0.0959
      2 C           2.5312   -1.2553    0.8102 C.3     1  UNL111      0.1916
      3 N           3.2330   -1.2637    1.8719 N.3     1  UNL111     -0.2009
      4 C           3.5105   -2.6443    2.3180 C.3     1  UNL111      0.0406
      5 C           2.8219   -3.4462    1.2282 C.3     1  UNL111      0.0644
      6 O           2.2262   -2.4662    0.3609 O.3     1  UNL111     -0.3512
      7 C           2.5437    1.2110    0.8065 C.3     1  UNL111      0.1916
      8 N           3.2485    1.2155    1.8662 N.3     1  UNL111     -0.2009
      9 C           3.5568    2.5946    2.2967 C.3     1  UNL111      0.0406
     10 C           2.8242    3.4004    1.2390 C.3     1  UNL111      0.0644
     11 O           2.2534    2.4235    0.3518 O.3     1  UNL111     -0.3512
     12 H           3.0619   -2.8149    3.2997 H       1  UNL111      0.0464
     13 H           4.5878   -2.8236    2.3447 H       1  UNL111      0.0464
     14 H           2.0394   -4.0989    1.6277 H       1  UNL111      0.0574
     15 H           3.5289   -4.0516    0.6520 H       1  UNL111      0.0574
     16 H           4.6362    2.7613    2.2656 H       1  UNL111      0.0464
     17 H           3.1629    2.7744    3.2998 H       1  UNL111      0.0464
     18 H           3.4995    4.0508    0.6742 H       1  UNL111      0.0574
     19 H           2.0208    4.0088    1.6664 H       1  UNL111      0.0574
@<TRIPOS>BOND
     1     1     2    1
     2     1     7    1
     3     2     3    1
     4     2     6    1
     5     3     4    1
     6     4     5    1
     7     4    12    1
     8     4    13    1
     9     5     6    1
    10     5    14    1
    11     5    15    1
    12     7     8    1
    13     7    11    1
    14     8     9    1
    15     9    10    1
    16     9    16    1
    17     9    17    1
    18    10    11    1
    19    10    18    1
    20    10    19    1
