@<TRIPOS>MOLECULE
*****
 21 22 0 0 0
SMALL
GASTEIGER

@<TRIPOS>ATOM
      1 C          -2.7499    0.7346    1.7243 C.3     1  UNL111     -0.0230
      2 C          -0.8304    0.1910    0.1464 C.3     1  UNL111      0.0127
      3 C          -3.0735    0.7681   -0.7801 C.3     1  UNL111      0.0016
      4 N          -2.0932   -0.3933   -0.5356 N.4     1  UNL111      0.3383
      5 C          -3.4912    1.4463    0.5493 C.3     1  UNL111      0.0119
      6 C          -1.2188    0.8023    1.5115 C.3     1  UNL111     -0.0044
      7 C          -2.7770   -1.4054    0.3991 C.3     1  UNL111     -0.0018
      8 C          -3.1693   -0.7538    1.7370 C.3     1  UNL111     -0.0075
      9 C           0.3186   -0.8301    0.2808 C.3     1  UNL111      0.0204
     10 H          -3.0205    1.2211    2.6753 H       1  UNL111      0.0309
     11 H          -0.4843    0.9992   -0.5104 H       1  UNL111      0.0870
     12 H          -3.9397    0.3894   -1.3270 H       1  UNL111      0.0833
     13 H          -2.5936    1.4977   -1.4319 H       1  UNL111      0.0833
     14 H          -4.5701    1.2743    0.6971 H       1  UNL111      0.0360
     15 H          -0.8492    1.8291    1.6084 H       1  UNL111      0.0323
     16 H          -0.7242    0.2311    2.3028 H       1  UNL111      0.0323
     17 H          -2.0910   -2.2395    0.5579 H       1  UNL111      0.0830
     18 H          -3.6502   -1.8158   -0.1139 H       1  UNL111      0.0830
     19 H          -4.2483   -0.8421    1.9125 H       1  UNL111      0.0320
     20 H          -2.6852   -1.2722    2.5738 H       1  UNL111      0.0320
     21 H           0.5288   -1.2626   -0.7055 H       1  UNL111      0.0365
@<TRIPOS>BOND
     1     1     5    1
     2     1     6    1
     3     2     4    1
     4     2     6    1
     5     3     5    1
     6     3     4    1
     7     4     7    1
     8     1     8    1
     9     8     7    1
    10     2     9    1
    11     1    10    1
    12     2    11    1
    13     3    12    1
    14     3    13    1
    15     5    14    1
    16     6    15    1
    17     6    16    1
    18     7    17    1
    19     7    18    1
    20     8    19    1
    21     8    20    1
    22     9    21    1
