@<TRIPOS>MOLECULE
*****
 45 48 0 0 0
SMALL
GASTEIGER

@<TRIPOS>ATOM
      1 C          -2.7499    0.7346    1.7243 C.3     1  UNL11      -0.0233
      2 C          -0.8304    0.1910    0.1464 C.3     1  UNL11       0.0430
      3 C          -3.0735    0.7681   -0.7801 C.3     1  UNL11       0.0012
      4 N          -2.0932   -0.3933   -0.5356 N.4     1  UNL11       0.3403
      5 C          -3.4912    1.4463    0.5493 C.3     1  UNL11       0.0037
      6 C          -1.2188    0.8023    1.5115 C.3     1  UNL11      -0.0018
      7 C          -3.2653    2.9696    0.5365 C.3     1  UNL11      -0.0479
      8 C          -4.1785    3.7045   -0.4322 C.3     1  UNL11      -0.0648
      9 C          -2.7770   -1.4054    0.3991 C.3     1  UNL11      -0.0016
     10 C          -3.1693   -0.7538    1.7370 C.3     1  UNL11      -0.0075
     11 C           0.3186   -0.8301    0.2808 C.3     1  UNL11       0.1631
     12 C           1.9161   -0.2567    2.1055 C.ar    1  UNL11      -0.0370
     13 C           1.5868   -0.1839    0.7871 C.ar    1  UNL11       0.0002
     14 N           3.9032    1.0394    1.8453 N.ar    1  UNL11      -0.2550
     15 C           2.4584    0.5489   -0.0565 C.ar    1  UNL11       0.0063
     16 C           3.0695    0.3600    2.5782 C.ar    1  UNL11       0.0286
     17 C           3.6068    1.1396    0.5229 C.ar    1  UNL11       0.0713
     18 C           2.2364    0.7155   -1.4430 C.ar    1  UNL11      -0.0522
     19 C           3.1070    1.4252   -2.2115 C.ar    1  UNL11      -0.0611
     20 C           4.2403    2.0050   -1.6389 C.ar    1  UNL11      -0.0597
     21 C           4.4833    1.8665   -0.3071 C.ar    1  UNL11      -0.0357
     22 O          -0.0816   -1.9380    1.1016 O.3     1  UNL11      -0.2201
     23 H          -3.0205    1.2211    2.6753 H       1  UNL11       0.0309
     24 H          -0.4843    0.9992   -0.5104 H       1  UNL11       0.0897
     25 H          -3.9397    0.3894   -1.3270 H       1  UNL11       0.0833
     26 H          -2.5936    1.4977   -1.4319 H       1  UNL11       0.0833
     27 H          -4.5701    1.2743    0.6971 H       1  UNL11       0.0355
     28 H          -0.8492    1.8291    1.6084 H       1  UNL11       0.0324
     29 H          -0.7242    0.2311    2.3028 H       1  UNL11       0.0324
     30 H          -3.4079    3.3617    1.5507 H       1  UNL11       0.0267
     31 H          -2.2164    3.1718    0.2943 H       1  UNL11       0.0267
     32 H          -4.0330    3.3635   -1.4577 H       1  UNL11       0.0230
     33 H          -5.2285    3.5411   -0.1855 H       1  UNL11       0.0230
     34 H          -4.0046    4.7822   -0.4194 H       1  UNL11       0.0230
     35 H          -2.0910   -2.2395    0.5579 H       1  UNL11       0.0830
     36 H          -3.6502   -1.8158   -0.1139 H       1  UNL11       0.0830
     37 H          -4.2483   -0.8421    1.9125 H       1  UNL11       0.0320
     38 H          -2.6852   -1.2722    2.5738 H       1  UNL11       0.0320
     39 H           0.5288   -1.2626   -0.7055 H       1  UNL11       0.0737
     40 H           1.2820   -0.8068    2.7787 H       1  UNL11       0.0636
     41 H           3.3147    0.2838    3.6268 H       1  UNL11       0.0830
     42 H           1.3670    0.2766   -1.8958 H       1  UNL11       0.0624
     43 H           2.9254    1.5421   -3.2666 H       1  UNL11       0.0618
     44 H           4.9247    2.5645   -2.2566 H       1  UNL11       0.0618
     45 H           5.3543    2.3109    0.1415 H       1  UNL11       0.0639
@<TRIPOS>BOND
     1     1     5    1
     2     1     6    1
     3     2     4    1
     4     2     6    1
     5     3     5    1
     6     3     4    1
     7     5     7    1
     8     7     8    1
     9     4     9    1
    10     1    10    1
    11    10     9    1
    12     2    11    1
    13    12    13   ar
    14    12    16   ar
    15    13    15   ar
    16    15    17   ar
    17    14    16   ar
    18    14    17   ar
    19    18    15   ar
    20    17    21   ar
    21    18    19   ar
    22    19    20   ar
    23    20    21   ar
    24    11    13    1
    25    11    22    1
    26     1    23    1
    27     2    24    1
    28     3    25    1
    29     3    26    1
    30     5    27    1
    31     6    28    1
    32     6    29    1
    33     7    30    1
    34     7    31    1
    35     8    32    1
    36     8    33    1
    37     8    34    1
    38     9    35    1
    39     9    36    1
    40    10    37    1
    41    10    38    1
    42    11    39    1
    43    12    40    1
    44    16    41    1
    45    18    42    1
    46    19    43    1
    47    20    44    1
    48    21    45    1
