@<TRIPOS>MOLECULE
dendrobine
 44 47 0 0 0
SMALL
GASTEIGER

@<TRIPOS>ATOM
      1 N           1.2960   -0.2319    1.2670 N.3     1  UNL1       -0.2981
      2 C           0.0573   -0.0226    2.1227 C.3     1  UNL1        0.0024
      3 C          -1.0974   -0.4738    1.2059 C.3     1  UNL1       -0.0210
      4 C          -0.4284   -0.4113   -0.1687 C.3     1  UNL1       -0.0055
      5 C           0.8683    0.3598   -0.0004 C.3     1  UNL1        0.0534
      6 C           2.4562    0.4417    1.8361 C.3     1  UNL1       -0.0123
      7 C          -2.4328    0.2659    0.9832 C.3     1  UNL1       -0.0482
      8 C          -2.6553    0.2472   -0.5801 C.3     1  UNL1       -0.0486
      9 C          -1.2428    0.5626   -1.0163 C.3     1  UNL1       -0.0205
     10 C           1.5353    0.5790   -1.4179 C.3     1  UNL1        0.1228
     11 O           1.3410    2.0363   -1.6507 O.3     1  UNL1       -0.4592
     12 C           0.0782    2.2291   -2.2166 C.2     1  UNL1        0.3112
     13 C          -0.5977    0.8539   -2.4020 C.3     1  UNL1        0.0662
     14 O          -0.4135    3.3180   -2.4552 O.2     1  UNL1       -0.2505
     15 C           0.7602    0.1678   -2.7001 C.3     1  UNL1        0.0132
     16 C           0.7812   -1.2141   -3.3773 C.3     1  UNL1       -0.0397
     17 H           1.2426    0.7684   -3.4982 H       1  UNL1        0.0347
     18 H          -1.1794    1.5580   -0.5377 H       1  UNL1        0.0315
     19 H           0.6516    1.3952    0.3174 H       1  UNL1        0.0504
     20 H          -1.3722   -1.4910    1.5134 H       1  UNL1        0.0319
     21 C          -0.2828   -1.8835   -0.5957 C.3     1  UNL1       -0.0574
     22 C           2.1775   -1.8412   -3.3215 C.3     1  UNL1       -0.0623
     23 C           0.3485   -1.1006   -4.8514 C.3     1  UNL1       -0.0623
     24 H           0.0590   -1.9009   -2.9478 H       1  UNL1        0.0300
     25 H          -0.0649    1.0264    2.4198 H       1  UNL1        0.0429
     26 H           0.1162   -0.6408    3.0244 H       1  UNL1        0.0429
     27 H           2.7150   -0.0049    2.8019 H       1  UNL1        0.0391
     28 H           2.2927    1.5147    1.9874 H       1  UNL1        0.0391
     29 H           3.3255    0.3162    1.1818 H       1  UNL1        0.0391
     30 H          -2.3716    1.2962    1.3534 H       1  UNL1        0.0269
     31 H          -3.2639   -0.2261    1.4982 H       1  UNL1        0.0269
     32 H          -3.3810    1.0069   -0.8836 H       1  UNL1        0.0268
     33 H          -2.9934   -0.7358   -0.9222 H       1  UNL1        0.0268
     34 H           2.6088    0.3798   -1.4394 H       1  UNL1        0.0753
     35 H          -1.2929    0.8772   -3.2423 H       1  UNL1        0.0420
     36 H          -0.3075   -2.5854    0.2475 H       1  UNL1        0.0236
     37 H           0.6920   -2.0890   -1.0319 H       1  UNL1        0.0236
     38 H          -1.0943   -2.1904   -1.2614 H       1  UNL1        0.0236
     39 H           2.1795   -2.8241   -3.8049 H       1  UNL1        0.0232
     40 H           2.5176   -1.9822   -2.2914 H       1  UNL1        0.0232
     41 H           2.9143   -1.2135   -3.8343 H       1  UNL1        0.0232
     42 H           0.3522   -2.0859   -5.3307 H       1  UNL1        0.0232
     43 H           1.0232   -0.4520   -5.4210 H       1  UNL1        0.0232
     44 H          -0.6652   -0.6967   -4.9346 H       1  UNL1        0.0232
@<TRIPOS>BOND
     1    43    23    1
     2    42    23    1
     3    44    23    1
     4    23    16    1
     5    41    22    1
     6    39    22    1
     7    17    15    1
     8    16    22    1
     9    16    24    1
    10    16    15    1
    11    22    40    1
    12    35    13    1
    13    15    13    1
    14    15    10    1
    15    14    12    2
    16    13    12    1
    17    13     9    1
    18    12    11    1
    19    11    10    1
    20    34    10    1
    21    10     5    1
    22    38    21    1
    23    37    21    1
    24     9     8    1
    25     9    18    1
    26     9     4    1
    27    33     8    1
    28    32     8    1
    29    21     4    1
    30    21    36    1
    31     8     7    1
    32     4     5    1
    33     4     3    1
    34     5    19    1
    35     5     1    1
    36     7     3    1
    37     7    30    1
    38     7    31    1
    39    29     6    1
    40     3    20    1
    41     3     2    1
    42     1     6    1
    43     1     2    1
    44     6    28    1
    45     6    27    1
    46     2    25    1
    47     2    26    1
