@<TRIPOS>MOLECULE
dimethyl_sulfone
 11 10 0 0 0
SMALL
GASTEIGER

@<TRIPOS>ATOM
      1 C          -3.8468    0.4459   -0.2037 C.3     1  UNL1        0.0541
      2 S          -2.3696    1.3617   -0.5684 S.O2    1  UNL1       -0.0366
      3 H          -3.8144   -0.5039   -0.7404 H       1  UNL1        0.0463
      4 H          -4.7036    1.0352   -0.5367 H       1  UNL1        0.0463
      5 H          -3.9024    0.2810    0.8738 H       1  UNL1        0.0463
      6 C          -1.0811    0.3002    0.0371 C.3     1  UNL1        0.0541
      7 H          -1.2242    0.1477    1.1084 H       1  UNL1        0.0463
      8 H          -0.1224    0.7896   -0.1463 H       1  UNL1        0.0463
      9 H          -1.1251   -0.6494   -0.4993 H       1  UNL1        0.0463
     10 O          -2.3774    2.5601    0.2475 O.2     1  UNL1       -0.1749
     11 O          -2.2401    1.4397   -2.0103 O.2     1  UNL1       -0.1749
@<TRIPOS>BOND
     1     1     2    1
     2     1     3    1
     3     1     4    1
     4     1     5    1
     5     2     6    1
     6     6     7    1
     7     6     8    1
     8     6     9    1
     9     2    10    2
    10     2    11    2
