@<TRIPOS>MOLECULE
dmf
 12 11 0 0 0
SMALL
GASTEIGER

@<TRIPOS>ATOM
      1 C          -4.9791    0.6157    0.0000 C.2     1  UNL1        0.2020
      2 O          -5.0618    1.8369   -0.0000 O.2     1  UNL1       -0.2793
      3 N          -3.8117   -0.1183    0.0000 N.am    1  UNL1       -0.3101
      4 H          -5.8824   -0.0166    0.0000 H       1  UNL1        0.1253
      5 C          -2.5234    0.5471   -0.0000 C.3     1  UNL1        0.0026
      6 C          -3.8274   -1.5666    0.0000 C.3     1  UNL1        0.0026
      7 H          -2.6298    1.6350   -0.0000 H       1  UNL1        0.0428
      8 H          -1.9701    0.2432   -0.8933 H       1  UNL1        0.0428
      9 H          -1.9701    0.2432    0.8933 H       1  UNL1        0.0428
     10 H          -4.8511   -1.9508    0.0000 H       1  UNL1        0.0428
     11 H          -3.3098   -1.9262    0.8938 H       1  UNL1        0.0428
     12 H          -3.3098   -1.9262   -0.8938 H       1  UNL1        0.0428
@<TRIPOS>BOND
     1     1     2    2
     2     1     3   am
     3     1     4    1
     4     3     5    1
     5     3     6    1
     6     5     7    1
     7     5     8    1
     8     5     9    1
     9     6    10    1
    10     6    11    1
    11     6    12    1
