@<TRIPOS>MOLECULE
sample
 18 18 0 0 0
SMALL
GASTEIGER

@<TRIPOS>ATOM
      1 C          -1.4001    2.4298    0.0000 C.ar    1  UNL1       -0.0561
      2 C          -2.0947    1.2187    0.0000 C.ar    1  UNL1       -0.0611
      3 C          -1.3990    0.0083    0.0000 C.ar    1  UNL1       -0.0561
      4 C           0.0000    0.0000    0.0000 C.ar    1  UNL1       -0.0150
      5 C           0.6822    1.2219    0.0000 C.ar    1  UNL1        0.1292
      6 C          -0.0000    2.4425    0.0000 C.ar    1  UNL1       -0.0150
      7 C           0.7385    3.7460    0.0000 C.3     1  UNL1       -0.0370
      8 C           0.7698   -1.2852    0.0000 C.3     1  UNL1       -0.0370
      9 H          -1.9566    3.3645    0.0000 H       1  UNL1        0.0621
     10 H          -3.1822    1.2183    0.0000 H       1  UNL1        0.0618
     11 H          -1.9565   -0.9256    0.0000 H       1  UNL1        0.0621
     12 H           1.8234    3.6011   -0.0000 H       1  UNL1        0.0278
     13 H           0.4791    4.3253    0.8921 H       1  UNL1        0.0278
     14 H           0.4791    4.3253   -0.8921 H       1  UNL1        0.0278
     15 H           0.1021   -2.1531   -0.0000 H       1  UNL1        0.0278
     16 H           1.4006   -1.3480    0.8926 H       1  UNL1        0.0278
     17 H           1.4006   -1.3480   -0.8926 H       1  UNL1        0.0278
     18 F           2.0246    1.2160    0.0000 F       1  UNL1       -0.2049
@<TRIPOS>BOND
     1     1     2   ar
     2     2     3   ar
     3     3     4   ar
     4     4     5   ar
     5     5     6   ar
     6     6     1   ar
     7     6     7    1
     8     4     8    1
     9     1     9    1
    10     2    10    1
    11     3    11    1
    12     7    12    1
    13     7    13    1
    14     7    14    1
    15     8    15    1
    16     8    16    1
    17     8    17    1
    18    18     5    1
