@<TRIPOS>MOLECULE
ISOSORBIDE DINITRATE
 24 25 0 0 0
SMALL
GASTEIGER

@<TRIPOS>ATOM
      1 C          -0.0190    1.5484    0.0106 C.3     1  UNL1        0.1345
      2 C           0.0021   -0.0041    0.0020 C.3     1  UNL1        0.1345
      3 C           1.3601   -0.3347   -0.6473 C.3     1  UNL1        0.2283
      4 C           2.2162    0.9144   -0.3811 C.3     1  UNL1        0.0947
      5 O           1.3448    1.9786   -0.0002 O.3     1  UNL1       -0.3659
      6 C          -0.6362    1.8968    1.3852 C.3     1  UNL1        0.2283
      7 C          -0.8905    0.5241    2.0456 C.3     1  UNL1        0.0947
      8 O           0.0327   -0.3761    1.3942 O.3     1  UNL1       -0.3659
      9 H          -0.8394   -0.4365   -0.5393 H       1  UNL1        0.0664
     10 H          -0.5877    1.9602   -0.8232 H       1  UNL1        0.0664
     11 O          -1.8654    2.6057    1.2161 O.2     1  UNL1       -0.2081
     12 O           1.9443   -1.4829   -0.0290 O.2     1  UNL1       -0.2081
     13 N          -2.1046    3.3042    2.4244 N.pl3   1  UNL1        0.2847
     14 N           2.8158   -2.0625   -0.9827 N.pl3   1  UNL1        0.2847
     15 O           2.9362   -1.5567   -2.0842 O.2     1  UNL1        0.0934
     16 O          -1.3134    3.2150    3.3462 O.2     1  UNL1        0.0934
     17 O          -3.1014    3.9941    2.5420 O.co2   1  UNL1       -0.5338
     18 O           3.4450   -3.0667   -0.7017 O.co2   1  UNL1       -0.5338
     19 H           1.2420   -0.4954   -1.7189 H       1  UNL1        0.0858
     20 H           2.9230    0.7116    0.4235 H       1  UNL1        0.0600
     21 H           2.7583    1.1887   -1.2861 H       1  UNL1        0.0600
     22 H           0.0642    2.4826    1.9804 H       1  UNL1        0.0858
     23 H          -0.6823    0.5730    3.1145 H       1  UNL1        0.0600
     24 H          -1.9181    0.2044    1.8727 H       1  UNL1        0.0600
@<TRIPOS>UNITY_ATOM_ATTR
1 1
charge 15
13 1
charge 1
14 1
charge 1
17 1
charge -1
18 1
charge -1
@<TRIPOS>BOND
     1     1     2    1
     2     1     5    1
     3     1     6    1
     4     1    10    1
     5     2     3    1
     6     2     8    1
     7     2     9    1
     8     3     4    1
     9     3    12    1
    10     3    19    1
    11     4     5    1
    12     4    20    1
    13     4    21    1
    14     6     7    1
    15     6    11    1
    16     6    22    1
    17     7     8    1
    18     7    23    1
    19     7    24    1
    20    11    13    1
    21    12    14    1
    22    13    16    2
    23    13    17    1
    24    14    15    2
    25    14    18    1