@<TRIPOS>MOLECULE
nanotube
 744 1092 0 0 0
SMALL
GASTEIGER

@<TRIPOS>ATOM
      1 C          19.1657   15.8005   59.5191 C.ar    1  UNL1       -0.0528
      2 C          20.2907   15.2932   58.8146 C.ar    1  UNL1       -0.0528
      3 C          20.2009   15.1297   57.4059 C.ar    1  UNL1       -0.0089
      4 C          20.8837   14.0424   56.7970 C.ar    1  UNL1       -0.0089
      5 C          21.6324   13.1566   57.6180 C.ar    1  UNL1       -0.0528
      6 C          21.6901   11.7807   57.2678 C.ar    1  UNL1       -0.0528
      7 C          20.9970   11.3386   56.1087 C.ar    1  UNL1       -0.0089
      8 C          20.4140   10.0427   56.1110 C.ar    1  UNL1       -0.0089
      9 C          20.5446    9.2342   57.2723 C.ar    1  UNL1       -0.0528
     10 C          19.4772    8.3655   57.6265 C.ar    1  UNL1       -0.0528
     11 C          18.3167    8.3358   56.8070 C.ar    1  UNL1       -0.0089
     12 C          17.0509    8.1271   57.4183 C.ar    1  UNL1       -0.0089
     13 C          16.9900    7.9556   58.8275 C.ar    1  UNL1       -0.0528
     14 C          15.8650    8.4629   59.5320 C.ar    1  UNL1       -0.0528
     15 C          14.8403    9.1240   58.8025 C.ar    1  UNL1       -0.0089
     16 C          14.1575   10.2113   59.4115 C.ar    1  UNL1       -0.0089
     17 C          14.5233   10.5994   60.7286 C.ar    1  UNL1       -0.0528
     18 C          14.4657   11.9754   61.0788 C.ar    1  UNL1       -0.0528
     19 C          14.0442   12.9150   60.0997 C.ar    1  UNL1       -0.0089
     20 C          14.6272   14.2110   60.0974 C.ar    1  UNL1       -0.0089
     21 C          15.6111   14.5219   61.0743 C.ar    1  UNL1       -0.0528
     22 C          16.6785   15.3905   60.7201 C.ar    1  UNL1       -0.0528
     23 C          16.7245   15.9179   59.4014 C.ar    1  UNL1       -0.0089
     24 C          17.9902   16.1265   58.7902 C.ar    1  UNL1       -0.0089
     25 C          18.0512   16.2981   57.3809 C.ar    1  UNL1       -0.0006
     26 C          19.1761   15.7908   56.6764 C.ar    1  UNL1       -0.0006
     27 C          19.0863   15.6272   55.2677 C.ar    1  UNL1       -0.0000
     28 C          19.7691   14.5399   54.6588 C.ar    1  UNL1       -0.0000
     29 C          20.5179   13.6542   55.4798 C.ar    1  UNL1       -0.0006
     30 C          20.5755   12.2783   55.1296 C.ar    1  UNL1       -0.0006
     31 C          19.8824   11.8362   53.9705 C.ar    1  UNL1       -0.0000
     32 C          19.2995   10.5403   53.9728 C.ar    1  UNL1       -0.0000
     33 C          19.4300    9.7318   55.1341 C.ar    1  UNL1       -0.0006
     34 C          18.3627    8.8631   55.4883 C.ar    1  UNL1       -0.0006
     35 C          17.2022    8.8333   54.6689 C.ar    1  UNL1       -0.0000
     36 C          15.9364    8.6247   55.2801 C.ar    1  UNL1       -0.0000
     37 C          15.8755    8.4532   56.6894 C.ar    1  UNL1       -0.0006
     38 C          14.7505    8.9604   57.3938 C.ar    1  UNL1       -0.0006
     39 C          13.7258    9.6216   56.6644 C.ar    1  UNL1       -0.0000
     40 C          13.0430   10.7088   57.2733 C.ar    1  UNL1       -0.0000
     41 C          13.4088   11.0970   58.5904 C.ar    1  UNL1       -0.0006
     42 C          13.3511   12.4729   58.9407 C.ar    1  UNL1       -0.0006
     43 C          12.9297   13.4126   57.9616 C.ar    1  UNL1       -0.0000
     44 C          13.5126   14.7085   57.9593 C.ar    1  UNL1       -0.0000
     45 C          14.4966   15.0194   58.9362 C.ar    1  UNL1       -0.0006
     46 C          15.5639   15.8881   58.5820 C.ar    1  UNL1       -0.0006
     47 C          15.6100   16.4154   57.2632 C.ar    1  UNL1       -0.0000
     48 C          16.8757   16.6241   56.6520 C.ar    1  UNL1       -0.0000
     49 C          16.9366   16.7956   55.2427 C.ar    1  UNL1       -0.0000
     50 C          18.0616   16.2883   54.5383 C.ar    1  UNL1       -0.0000
     51 C          17.9718   16.1248   53.1296 C.ar    1  UNL1       -0.0000
     52 C          18.6546   15.0375   52.5206 C.ar    1  UNL1       -0.0000
     53 C          19.4033   14.1518   53.3417 C.ar    1  UNL1       -0.0000
     54 C          19.4610   12.7758   52.9914 C.ar    1  UNL1       -0.0000
     55 C          18.7679   12.3338   51.8324 C.ar    1  UNL1       -0.0000
     56 C          18.1850   11.0378   51.8347 C.ar    1  UNL1       -0.0000
     57 C          18.3155   10.2293   52.9959 C.ar    1  UNL1       -0.0000
     58 C          17.2482    9.3607   53.3501 C.ar    1  UNL1       -0.0000
     59 C          16.0876    9.3309   52.5307 C.ar    1  UNL1       -0.0000
     60 C          14.8219    9.1223   53.1419 C.ar    1  UNL1       -0.0000
     61 C          14.7610    8.9507   54.5512 C.ar    1  UNL1       -0.0000
     62 C          13.6360    9.4580   55.2557 C.ar    1  UNL1       -0.0000
     63 C          12.6112   10.1191   54.5262 C.ar    1  UNL1       -0.0000
     64 C          11.9284   11.2064   55.1351 C.ar    1  UNL1       -0.0000
     65 C          12.2942   11.5946   56.4522 C.ar    1  UNL1       -0.0000
     66 C          12.2366   12.9705   56.8025 C.ar    1  UNL1       -0.0000
     67 C          11.8151   13.9102   55.8234 C.ar    1  UNL1       -0.0000
     68 C          12.3981   15.2061   55.8211 C.ar    1  UNL1       -0.0000
     69 C          13.3821   15.5170   56.7980 C.ar    1  UNL1       -0.0000
     70 C          14.4494   16.3857   56.4438 C.ar    1  UNL1       -0.0000
     71 C          14.4954   16.9130   55.1251 C.ar    1  UNL1       -0.0000
     72 C          15.7612   17.1217   54.5138 C.ar    1  UNL1       -0.0000
     73 C          15.8221   17.2932   53.1046 C.ar    1  UNL1        0.0000
     74 C          16.9471   16.7859   52.4001 C.ar    1  UNL1        0.0000
     75 C          16.8573   16.6224   50.9914 C.ar    1  UNL1        0.0000
     76 C          17.5401   15.5351   50.3824 C.ar    1  UNL1        0.0000
     77 C          18.2888   14.6494   51.2035 C.ar    1  UNL1        0.0000
     78 C          18.3465   13.2734   50.8533 C.ar    1  UNL1        0.0000
     79 C          17.6534   12.8313   49.6942 C.ar    1  UNL1        0.0000
     80 C          17.0704   11.5354   49.6965 C.ar    1  UNL1        0.0000
     81 C          17.2010   10.7269   50.8577 C.ar    1  UNL1        0.0000
     82 C          16.1336    9.8583   51.2120 C.ar    1  UNL1        0.0000
     83 C          14.9731    9.8285   50.3925 C.ar    1  UNL1        0.0000
     84 C          13.7073    9.6199   51.0037 C.ar    1  UNL1        0.0000
     85 C          13.6464    9.4483   52.4130 C.ar    1  UNL1        0.0000
     86 C          12.5214    9.9556   53.1175 C.ar    1  UNL1        0.0000
     87 C          11.4967   10.6167   52.3880 C.ar    1  UNL1        0.0000
     88 C          10.8139   11.7040   52.9970 C.ar    1  UNL1        0.0000
     89 C          11.1797   12.0921   54.3141 C.ar    1  UNL1        0.0000
     90 C          11.1220   13.4681   54.6643 C.ar    1  UNL1        0.0000
     91 C          10.7006   14.4078   53.6852 C.ar    1  UNL1        0.0000
     92 C          11.2835   15.7037   53.6829 C.ar    1  UNL1        0.0000
     93 C          12.2675   16.0146   54.6598 C.ar    1  UNL1        0.0000
     94 C          13.3349   16.8833   54.3056 C.ar    1  UNL1        0.0000
     95 C          13.3809   17.4106   52.9869 C.ar    1  UNL1        0.0000
     96 C          14.6466   17.6192   52.3757 C.ar    1  UNL1        0.0000
     97 C          14.7075   17.7908   50.9664 C.ar    1  UNL1        0.0000
     98 C          15.8325   17.2835   50.2619 C.ar    1  UNL1        0.0000
     99 C          15.7427   17.1200   48.8532 C.ar    1  UNL1        0.0000
    100 C          16.4255   16.0327   48.2443 C.ar    1  UNL1        0.0000
    101 C          17.1743   15.1469   49.0653 C.ar    1  UNL1        0.0000
    102 C          17.2319   13.7710   48.7151 C.ar    1  UNL1        0.0000
    103 C          16.5388   13.3289   47.5560 C.ar    1  UNL1        0.0000
    104 C          15.9559   12.0330   47.5583 C.ar    1  UNL1        0.0000
    105 C          16.0864   11.2245   48.7196 C.ar    1  UNL1        0.0000
    106 C          15.0191   10.3558   49.0738 C.ar    1  UNL1        0.0000
    107 C          13.8585   10.3261   48.2543 C.ar    1  UNL1        0.0000
    108 C          12.5928   10.1174   48.8656 C.ar    1  UNL1        0.0000
    109 C          12.5319    9.9459   50.2749 C.ar    1  UNL1        0.0000
    110 C          11.4069   10.4532   50.9793 C.ar    1  UNL1        0.0000
    111 C          10.3822   11.1143   50.2499 C.ar    1  UNL1        0.0000
    112 C           9.6994   12.2016   50.8588 C.ar    1  UNL1        0.0000
    113 C          10.0652   12.5897   52.1759 C.ar    1  UNL1        0.0000
    114 C          10.0075   13.9657   52.5262 C.ar    1  UNL1        0.0000
    115 C           9.5861   14.9053   51.5471 C.ar    1  UNL1        0.0000
    116 C          10.1690   16.2013   51.5448 C.ar    1  UNL1        0.0000
    117 C          11.1530   16.5122   52.5217 C.ar    1  UNL1        0.0000
    118 C          12.2203   17.3808   52.1675 C.ar    1  UNL1        0.0000
    119 C          12.2663   17.9082   50.8487 C.ar    1  UNL1        0.0000
    120 C          13.5321   18.1168   50.2375 C.ar    1  UNL1        0.0000
    121 C          13.5930   18.2884   48.8282 C.ar    1  UNL1        0.0000
    122 C          14.7180   17.7811   48.1237 C.ar    1  UNL1        0.0000
    123 C          14.6282   17.6175   46.7150 C.ar    1  UNL1        0.0000
    124 C          15.3110   16.5302   46.1061 C.ar    1  UNL1        0.0000
    125 C          16.0597   15.6445   46.9272 C.ar    1  UNL1        0.0000
    126 C          16.1174   14.2686   46.5769 C.ar    1  UNL1        0.0000
    127 C          15.4243   13.8265   45.4179 C.ar    1  UNL1        0.0000
    128 C          14.8413   12.5306   45.4201 C.ar    1  UNL1        0.0000
    129 C          14.9719   11.7221   46.5814 C.ar    1  UNL1        0.0000
    130 C          13.9046   10.8534   46.9356 C.ar    1  UNL1        0.0000
    131 C          12.7440   10.8236   46.1162 C.ar    1  UNL1        0.0000
    132 C          11.4783   10.6150   46.7274 C.ar    1  UNL1        0.0000
    133 C          11.4173   10.4435   48.1367 C.ar    1  UNL1        0.0000
    134 C          10.2924   10.9507   48.8412 C.ar    1  UNL1        0.0000
    135 C           9.2676   11.6119   48.1117 C.ar    1  UNL1        0.0000
    136 C           8.5848   12.6992   48.7206 C.ar    1  UNL1        0.0000
    137 C           8.9506   13.0873   50.0377 C.ar    1  UNL1        0.0000
    138 C           8.8930   14.4632   50.3880 C.ar    1  UNL1        0.0000
    139 C           8.4715   15.4029   49.4089 C.ar    1  UNL1        0.0000
    140 C           9.0545   16.6988   49.4066 C.ar    1  UNL1        0.0000
    141 C          10.0385   17.0097   50.3835 C.ar    1  UNL1        0.0000
    142 C          11.1058   17.8784   50.0293 C.ar    1  UNL1        0.0000
    143 C          11.1518   18.4057   48.7106 C.ar    1  UNL1        0.0000
    144 C          12.4176   18.6144   48.0993 C.ar    1  UNL1        0.0000
    145 C          12.4785   18.7859   46.6900 C.ar    1  UNL1        0.0000
    146 C          13.6035   18.2786   45.9856 C.ar    1  UNL1        0.0000
    147 C          13.5136   18.1151   44.5769 C.ar    1  UNL1        0.0000
    148 C          14.1965   17.0278   43.9679 C.ar    1  UNL1        0.0000
    149 C          14.9452   16.1421   44.7890 C.ar    1  UNL1        0.0000
    150 C          15.0028   14.7661   44.4387 C.ar    1  UNL1        0.0000
    151 C          14.3098   14.3241   43.2797 C.ar    1  UNL1        0.0000
    152 C          13.7268   13.0281   43.2820 C.ar    1  UNL1        0.0000
    153 C          13.8574   12.2196   44.4432 C.ar    1  UNL1        0.0000
    154 C          12.7900   11.3510   44.7975 C.ar    1  UNL1        0.0000
    155 C          11.6295   11.3212   43.9780 C.ar    1  UNL1        0.0000
    156 C          10.3637   11.1126   44.5892 C.ar    1  UNL1        0.0000
    157 C          10.3028   10.9410   45.9985 C.ar    1  UNL1        0.0000
    158 C           9.1778   11.4483   46.7030 C.ar    1  UNL1        0.0000
    159 C           8.1531   12.1094   45.9735 C.ar    1  UNL1        0.0000
    160 C           7.4703   13.1967   46.5825 C.ar    1  UNL1        0.0000
    161 C           7.8361   13.5849   47.8996 C.ar    1  UNL1        0.0000
    162 C           7.7784   14.9608   48.2498 C.ar    1  UNL1        0.0000
    163 C           7.3570   15.9005   47.2707 C.ar    1  UNL1        0.0000
    164 C           7.9399   17.1964   47.2684 C.ar    1  UNL1        0.0000
    165 C           8.9239   17.5073   48.2453 C.ar    1  UNL1        0.0000
    166 C           9.9913   18.3760   47.8911 C.ar    1  UNL1        0.0000
    167 C          10.0373   18.9033   46.5724 C.ar    1  UNL1        0.0000
    168 C          11.3030   19.1120   45.9612 C.ar    1  UNL1        0.0000
    169 C          11.3639   19.2835   44.5519 C.ar    1  UNL1        0.0000
    170 C          12.4889   18.7762   43.8474 C.ar    1  UNL1        0.0000
    171 C          12.3991   18.6127   42.4387 C.ar    1  UNL1        0.0000
    172 C          13.0819   17.5254   41.8298 C.ar    1  UNL1        0.0000
    173 C          13.8307   16.6397   42.6508 C.ar    1  UNL1        0.0000
    174 C          13.8883   15.2637   42.3006 C.ar    1  UNL1        0.0000
    175 C          13.1952   14.8216   41.1415 C.ar    1  UNL1        0.0000
    176 C          12.6123   13.5257   41.1438 C.ar    1  UNL1        0.0000
    177 C          12.7428   12.7172   42.3051 C.ar    1  UNL1        0.0000
    178 C          11.6755   11.8486   42.6593 C.ar    1  UNL1        0.0000
    179 C          10.5149   11.8188   41.8398 C.ar    1  UNL1        0.0000
    180 C           9.2492   11.6102   42.4511 C.ar    1  UNL1        0.0000
    181 C           9.1883   11.4386   43.8604 C.ar    1  UNL1        0.0000
    182 C           8.0633   11.9459   44.5648 C.ar    1  UNL1        0.0000
    183 C           7.0386   12.6070   43.8354 C.ar    1  UNL1        0.0000
    184 C           6.3558   13.6943   44.4443 C.ar    1  UNL1        0.0000
    185 C           6.7216   14.0824   45.7614 C.ar    1  UNL1        0.0000
    186 C           6.6639   15.4584   46.1117 C.ar    1  UNL1        0.0000
    187 C           6.2425   16.3981   45.1325 C.ar    1  UNL1        0.0000
    188 C           6.8254   17.6940   45.1303 C.ar    1  UNL1        0.0000
    189 C           7.8094   18.0049   46.1072 C.ar    1  UNL1        0.0000
    190 C           8.8767   18.8736   45.7529 C.ar    1  UNL1        0.0000
    191 C           8.9227   19.4009   44.4342 C.ar    1  UNL1        0.0000
    192 C          10.1885   19.6095   43.8230 C.ar    1  UNL1        0.0000
    193 C          10.2494   19.7811   42.4137 C.ar    1  UNL1        0.0000
    194 C          11.3744   19.2738   41.7092 C.ar    1  UNL1        0.0000
    195 C          11.2846   19.1103   40.3005 C.ar    1  UNL1        0.0000
    196 C          11.9674   18.0230   39.6916 C.ar    1  UNL1        0.0000
    197 C          12.7161   17.1372   40.5127 C.ar    1  UNL1        0.0000
    198 C          12.7738   15.7613   40.1624 C.ar    1  UNL1        0.0000
    199 C          12.0807   15.3192   39.0033 C.ar    1  UNL1        0.0000
    200 C          11.4977   14.0233   39.0056 C.ar    1  UNL1        0.0000
    201 C          11.6283   13.2148   40.1669 C.ar    1  UNL1        0.0000
    202 C          10.5609   12.3461   40.5211 C.ar    1  UNL1        0.0000
    203 C           9.4004   12.3164   39.7017 C.ar    1  UNL1        0.0000
    204 C           8.1347   12.1077   40.3129 C.ar    1  UNL1        0.0000
    205 C           8.0737   11.9362   41.7222 C.ar    1  UNL1        0.0000
    206 C           6.9487   12.4435   42.4267 C.ar    1  UNL1        0.0000
    207 C           5.9240   13.1046   41.6972 C.ar    1  UNL1        0.0000
    208 C           5.2412   14.1919   42.3061 C.ar    1  UNL1        0.0000
    209 C           5.6070   14.5800   43.6232 C.ar    1  UNL1        0.0000
    210 C           5.5494   15.9560   43.9735 C.ar    1  UNL1        0.0000
    211 C           5.1279   16.8956   42.9944 C.ar    1  UNL1        0.0000
    212 C           5.7109   18.1916   42.9921 C.ar    1  UNL1        0.0000
    213 C           6.6949   18.5025   43.9690 C.ar    1  UNL1        0.0000
    214 C           7.7622   19.3711   43.6148 C.ar    1  UNL1        0.0000
    215 C           7.8082   19.8985   42.2961 C.ar    1  UNL1        0.0000
    216 C           9.0739   20.1071   41.6848 C.ar    1  UNL1        0.0000
    217 C           9.1349   20.2787   40.2755 C.ar    1  UNL1        0.0000
    218 C          10.2599   19.7714   39.5711 C.ar    1  UNL1        0.0000
    219 C          10.1700   19.6078   38.1624 C.ar    1  UNL1        0.0000
    220 C          10.8528   18.5205   37.5534 C.ar    1  UNL1        0.0000
    221 C          11.6016   17.6348   38.3745 C.ar    1  UNL1        0.0000
    222 C          11.6592   16.2589   38.0242 C.ar    1  UNL1        0.0000
    223 C          10.9661   15.8168   36.8652 C.ar    1  UNL1        0.0000
    224 C          10.3832   14.5209   36.8675 C.ar    1  UNL1        0.0000
    225 C          10.5137   13.7124   38.0287 C.ar    1  UNL1        0.0000
    226 C           9.4464   12.8437   38.3829 C.ar    1  UNL1        0.0000
    227 C           8.2859   12.8139   37.5635 C.ar    1  UNL1        0.0000
    228 C           7.0201   12.6053   38.1747 C.ar    1  UNL1        0.0000
    229 C           6.9592   12.4338   39.5840 C.ar    1  UNL1        0.0000
    230 C           5.8342   12.9411   40.2885 C.ar    1  UNL1        0.0000
    231 C           4.8095   13.6022   39.5590 C.ar    1  UNL1        0.0000
    232 C           4.1267   14.6895   40.1680 C.ar    1  UNL1        0.0000
    233 C           4.4925   15.0776   41.4851 C.ar    1  UNL1        0.0000
    234 C           4.4348   16.4535   41.8353 C.ar    1  UNL1        0.0000
    235 C           4.0134   17.3932   40.8562 C.ar    1  UNL1        0.0000
    236 C           4.5963   18.6891   40.8539 C.ar    1  UNL1        0.0000
    237 C           5.5803   19.0000   41.8308 C.ar    1  UNL1        0.0000
    238 C           6.6477   19.8687   41.4766 C.ar    1  UNL1        0.0000
    239 C           6.6937   20.3960   40.1579 C.ar    1  UNL1        0.0000
    240 C           7.9594   20.6047   39.5467 C.ar    1  UNL1        0.0000
    241 C           8.0203   20.7762   38.1374 C.ar    1  UNL1        0.0000
    242 C           9.1453   20.2689   37.4329 C.ar    1  UNL1        0.0000
    243 C           9.0555   20.1054   36.0242 C.ar    1  UNL1        0.0000
    244 C           9.7383   19.0181   35.4153 C.ar    1  UNL1        0.0000
    245 C          10.4870   18.1324   36.2363 C.ar    1  UNL1        0.0000
    246 C          10.5447   16.7564   35.8861 C.ar    1  UNL1        0.0000
    247 C           9.8516   16.3144   34.7270 C.ar    1  UNL1        0.0000
    248 C           9.2687   15.0184   34.7293 C.ar    1  UNL1        0.0000
    249 C           9.3992   14.2099   35.8906 C.ar    1  UNL1        0.0000
    250 C           8.3319   13.3413   36.2448 C.ar    1  UNL1        0.0000
    251 C           7.1713   13.3115   35.4253 C.ar    1  UNL1        0.0000
    252 C           5.9056   13.1029   36.0366 C.ar    1  UNL1        0.0000
    253 C           5.8447   12.9313   37.4458 C.ar    1  UNL1        0.0000
    254 C           4.7197   13.4386   38.1503 C.ar    1  UNL1        0.0000
    255 C           3.6950   14.0997   37.4208 C.ar    1  UNL1        0.0000
    256 C           3.0121   15.1870   38.0298 C.ar    1  UNL1        0.0000
    257 C           3.3779   15.5752   39.3469 C.ar    1  UNL1        0.0000
    258 C           3.3203   16.9511   39.6971 C.ar    1  UNL1        0.0000
    259 C           2.8988   17.8908   38.7180 C.ar    1  UNL1        0.0000
    260 C           3.4818   19.1867   38.7157 C.ar    1  UNL1        0.0000
    261 C           4.4658   19.4976   39.6927 C.ar    1  UNL1        0.0000
    262 C           5.5331   20.3663   39.3384 C.ar    1  UNL1        0.0000
    263 C           5.5791   20.8936   38.0197 C.ar    1  UNL1        0.0000
    264 C           6.8449   21.1023   37.4085 C.ar    1  UNL1        0.0000
    265 C           6.9058   21.2738   35.9992 C.ar    1  UNL1        0.0000
    266 C           8.0308   20.7665   35.2947 C.ar    1  UNL1        0.0000
    267 C           7.9410   20.6030   33.8860 C.ar    1  UNL1        0.0000
    268 C           8.6238   19.5157   33.2771 C.ar    1  UNL1        0.0000
    269 C           9.3725   18.6300   34.0981 C.ar    1  UNL1        0.0000
    270 C           9.4302   17.2540   33.7479 C.ar    1  UNL1        0.0000
    271 C           8.7371   16.8119   32.5888 C.ar    1  UNL1        0.0000
    272 C           8.1541   15.5160   32.5911 C.ar    1  UNL1        0.0000
    273 C           8.2847   14.7075   33.7524 C.ar    1  UNL1        0.0000
    274 C           7.2173   13.8389   34.1066 C.ar    1  UNL1        0.0000
    275 C           6.0568   13.8091   33.2872 C.ar    1  UNL1        0.0000
    276 C           4.7910   13.6005   33.8984 C.ar    1  UNL1        0.0000
    277 C           4.7301   13.4289   35.3077 C.ar    1  UNL1        0.0000
    278 C           3.6051   13.9362   36.0121 C.ar    1  UNL1        0.0000
    279 C           2.5804   14.5973   35.2827 C.ar    1  UNL1        0.0000
    280 C           1.8976   15.6846   35.8916 C.ar    1  UNL1        0.0000
    281 C           2.2634   16.0727   37.2087 C.ar    1  UNL1        0.0000
    282 C           2.2058   17.4487   37.5590 C.ar    1  UNL1        0.0000
    283 C           1.7843   18.3884   36.5799 C.ar    1  UNL1        0.0000
    284 C           2.3673   19.6843   36.5776 C.ar    1  UNL1        0.0000
    285 C           3.3512   19.9952   37.5545 C.ar    1  UNL1        0.0000
    286 C           4.4186   20.8639   37.2003 C.ar    1  UNL1        0.0000
    287 C           4.4646   21.3912   35.8815 C.ar    1  UNL1        0.0000
    288 C           5.7303   21.5998   35.2703 C.ar    1  UNL1        0.0000
    289 C           5.7913   21.7714   33.8610 C.ar    1  UNL1        0.0000
    290 C           6.9162   21.2641   33.1566 C.ar    1  UNL1        0.0000
    291 C           6.8264   21.1006   31.7479 C.ar    1  UNL1        0.0000
    292 C           7.5092   20.0133   31.1389 C.ar    1  UNL1        0.0000
    293 C           8.2580   19.1275   31.9600 C.ar    1  UNL1        0.0000
    294 C           8.3156   17.7516   31.6097 C.ar    1  UNL1        0.0000
    295 C           7.6225   17.3095   30.4507 C.ar    1  UNL1        0.0000
    296 C           7.0396   16.0136   30.4530 C.ar    1  UNL1        0.0000
    297 C           7.1701   15.2051   31.6142 C.ar    1  UNL1        0.0000
    298 C           6.1028   14.3364   31.9684 C.ar    1  UNL1        0.0000
    299 C           4.9423   14.3067   31.1490 C.ar    1  UNL1        0.0000
    300 C           3.6765   14.0980   31.7602 C.ar    1  UNL1        0.0000
    301 C           3.6156   13.9265   33.1695 C.ar    1  UNL1        0.0000
    302 C           2.4906   14.4338   33.8740 C.ar    1  UNL1        0.0000
    303 C           1.4659   15.0949   33.1445 C.ar    1  UNL1        0.0000
    304 C           0.7831   16.1822   33.7534 C.ar    1  UNL1        0.0000
    305 C           1.1489   16.5703   35.0706 C.ar    1  UNL1        0.0000
    306 C           1.0912   17.9463   35.4208 C.ar    1  UNL1        0.0000
    307 C           0.6698   18.8859   34.4417 C.ar    1  UNL1        0.0000
    308 C           1.2527   20.1819   34.4394 C.ar    1  UNL1        0.0000
    309 C           2.2367   20.4928   35.4163 C.ar    1  UNL1        0.0000
    310 C           3.3040   21.3614   35.0621 C.ar    1  UNL1        0.0000
    311 C           3.3501   21.8888   33.7434 C.ar    1  UNL1        0.0000
    312 C           4.6158   22.0974   33.1321 C.ar    1  UNL1        0.0000
    313 C           4.6767   22.2690   31.7229 C.ar    1  UNL1        0.0000
    314 C           5.8017   21.7617   31.0184 C.ar    1  UNL1        0.0000
    315 C           5.7119   21.5981   29.6097 C.ar    1  UNL1        0.0000
    316 C           6.3947   20.5108   29.0007 C.ar    1  UNL1        0.0000
    317 C           7.1434   19.6251   29.8218 C.ar    1  UNL1        0.0000
    318 C           7.2011   18.2492   29.4716 C.ar    1  UNL1        0.0000
    319 C           6.5080   17.8071   28.3125 C.ar    1  UNL1        0.0000
    320 C           5.9251   16.5112   28.3148 C.ar    1  UNL1        0.0000
    321 C           6.0556   15.7027   29.4761 C.ar    1  UNL1        0.0000
    322 C           4.9883   14.8340   29.8303 C.ar    1  UNL1        0.0000
    323 C           3.8277   14.8042   29.0108 C.ar    1  UNL1        0.0000
    324 C           2.5620   14.5956   29.6220 C.ar    1  UNL1        0.0000
    325 C           2.5011   14.4241   31.0313 C.ar    1  UNL1        0.0000
    326 C           1.3761   14.9314   31.7358 C.ar    1  UNL1        0.0000
    327 C           0.3513   15.5925   31.0063 C.ar    1  UNL1        0.0000
    328 C          -0.3315   16.6798   31.6153 C.ar    1  UNL1        0.0000
    329 C           0.0343   17.0679   32.9324 C.ar    1  UNL1        0.0000
    330 C          -0.0233   18.4438   33.2826 C.ar    1  UNL1        0.0000
    331 C          -0.4448   19.3835   32.3035 C.ar    1  UNL1        0.0000
    332 C           0.1382   20.6794   32.3012 C.ar    1  UNL1        0.0000
    333 C           1.1222   20.9904   33.2781 C.ar    1  UNL1        0.0000
    334 C           2.1895   21.8590   32.9239 C.ar    1  UNL1        0.0000
    335 C           2.2355   22.3863   31.6052 C.ar    1  UNL1        0.0000
    336 C           3.5013   22.5950   30.9940 C.ar    1  UNL1        0.0000
    337 C           3.5622   22.7665   29.5847 C.ar    1  UNL1        0.0000
    338 C           4.6872   22.2592   28.8802 C.ar    1  UNL1        0.0000
    339 C           4.5974   22.0957   27.4715 C.ar    1  UNL1        0.0000
    340 C           5.2802   21.0084   26.8626 C.ar    1  UNL1        0.0000
    341 C           6.0289   20.1227   27.6836 C.ar    1  UNL1        0.0000
    342 C           6.0866   18.7467   27.3334 C.ar    1  UNL1        0.0000
    343 C           5.3935   18.3047   26.1743 C.ar    1  UNL1        0.0000
    344 C           4.8105   17.0087   26.1766 C.ar    1  UNL1        0.0000
    345 C           4.9411   16.2002   27.3379 C.ar    1  UNL1        0.0000
    346 C           3.8737   15.3316   27.6921 C.ar    1  UNL1        0.0000
    347 C           2.7132   15.3018   26.8726 C.ar    1  UNL1        0.0000
    348 C           1.4474   15.0932   27.4839 C.ar    1  UNL1        0.0000
    349 C           1.3865   14.9216   28.8932 C.ar    1  UNL1        0.0000
    350 C           0.2615   15.4289   29.5976 C.ar    1  UNL1        0.0000
    351 C          -0.7632   16.0900   28.8682 C.ar    1  UNL1        0.0000
    352 C          -1.4460   17.1773   29.4771 C.ar    1  UNL1        0.0000
    353 C          -1.0802   17.5655   30.7942 C.ar    1  UNL1        0.0000
    354 C          -1.1379   18.9414   31.1445 C.ar    1  UNL1        0.0000
    355 C          -1.5593   19.8811   30.1654 C.ar    1  UNL1        0.0000
    356 C          -0.9764   21.1770   30.1631 C.ar    1  UNL1        0.0000
    357 C           0.0076   21.4879   31.1400 C.ar    1  UNL1        0.0000
    358 C           1.0750   22.3566   30.7858 C.ar    1  UNL1        0.0000
    359 C           1.1210   22.8839   29.4670 C.ar    1  UNL1        0.0000
    360 C           2.3867   23.0926   28.8558 C.ar    1  UNL1        0.0000
    361 C           2.4476   23.2641   27.4465 C.ar    1  UNL1        0.0000
    362 C           3.5726   22.7568   26.7420 C.ar    1  UNL1        0.0000
    363 C           3.4828   22.5933   25.3334 C.ar    1  UNL1        0.0000
    364 C           4.1656   21.5060   24.7244 C.ar    1  UNL1        0.0000
    365 C           4.9144   20.6203   25.5455 C.ar    1  UNL1        0.0000
    366 C           4.9720   19.2443   25.1952 C.ar    1  UNL1        0.0000
    367 C           4.2789   18.8022   24.0362 C.ar    1  UNL1        0.0000
    368 C           3.6960   17.5063   24.0384 C.ar    1  UNL1        0.0000
    369 C           3.8265   16.6978   25.1997 C.ar    1  UNL1        0.0000
    370 C           2.7592   15.8292   25.5539 C.ar    1  UNL1        0.0000
    371 C           1.5986   15.7994   24.7345 C.ar    1  UNL1        0.0000
    372 C           0.3329   15.5908   25.3457 C.ar    1  UNL1        0.0000
    373 C           0.2720   15.4192   26.7550 C.ar    1  UNL1        0.0000
    374 C          -0.8530   15.9265   27.4595 C.ar    1  UNL1        0.0000
    375 C          -1.8777   16.5876   26.7300 C.ar    1  UNL1        0.0000
    376 C          -2.5605   17.6749   27.3389 C.ar    1  UNL1        0.0000
    377 C          -2.1947   18.0630   28.6560 C.ar    1  UNL1        0.0000
    378 C          -2.2524   19.4390   29.0063 C.ar    1  UNL1        0.0000
    379 C          -2.6738   20.3787   28.0272 C.ar    1  UNL1        0.0000
    380 C          -2.0909   21.6746   28.0249 C.ar    1  UNL1        0.0000
    381 C          -1.1069   21.9855   29.0018 C.ar    1  UNL1        0.0000
    382 C          -0.0396   22.8542   28.6476 C.ar    1  UNL1        0.0000
    383 C           0.0064   23.3815   27.3289 C.ar    1  UNL1        0.0000
    384 C           1.2722   23.5901   26.7176 C.ar    1  UNL1        0.0000
    385 C           1.3331   23.7617   25.3083 C.ar    1  UNL1        0.0000
    386 C           2.4581   23.2544   24.6039 C.ar    1  UNL1        0.0000
    387 C           2.3683   23.0909   23.1952 C.ar    1  UNL1        0.0000
    388 C           3.0511   22.0036   22.5862 C.ar    1  UNL1        0.0000
    389 C           3.7998   21.1178   23.4073 C.ar    1  UNL1        0.0000
    390 C           3.8575   19.7419   23.0570 C.ar    1  UNL1        0.0000
    391 C           3.1644   19.2998   21.8980 C.ar    1  UNL1        0.0000
    392 C           2.5814   18.0039   21.9003 C.ar    1  UNL1        0.0000
    393 C           2.7120   17.1954   23.0615 C.ar    1  UNL1        0.0000
    394 C           1.6447   16.3267   23.4158 C.ar    1  UNL1        0.0000
    395 C           0.4841   16.2970   22.5963 C.ar    1  UNL1        0.0000
    396 C          -0.7816   16.0883   23.2075 C.ar    1  UNL1        0.0000
    397 C          -0.8426   15.9168   24.6168 C.ar    1  UNL1        0.0000
    398 C          -1.9675   16.4241   25.3213 C.ar    1  UNL1        0.0000
    399 C          -2.9923   17.0852   24.5918 C.ar    1  UNL1        0.0000
    400 C          -3.6751   18.1725   25.2008 C.ar    1  UNL1        0.0000
    401 C          -3.3093   18.5606   26.5179 C.ar    1  UNL1        0.0000
    402 C          -3.3669   19.9366   26.8681 C.ar    1  UNL1        0.0000
    403 C          -3.7884   20.8762   25.8890 C.ar    1  UNL1        0.0000
    404 C          -3.2054   22.1722   25.8867 C.ar    1  UNL1        0.0000
    405 C          -2.2214   22.4831   26.8636 C.ar    1  UNL1        0.0000
    406 C          -1.1541   23.3517   26.5094 C.ar    1  UNL1        0.0000
    407 C          -1.1081   23.8791   25.1907 C.ar    1  UNL1        0.0000
    408 C           0.1577   24.0877   24.5795 C.ar    1  UNL1        0.0000
    409 C           0.2186   24.2593   23.1702 C.ar    1  UNL1        0.0000
    410 C           1.3436   23.7520   22.4657 C.ar    1  UNL1        0.0000
    411 C           1.2538   23.5884   21.0570 C.ar    1  UNL1        0.0000
    412 C           1.9366   22.5011   20.4481 C.ar    1  UNL1        0.0000
    413 C           2.6853   21.6154   21.2691 C.ar    1  UNL1        0.0000
    414 C           2.7429   20.2395   20.9189 C.ar    1  UNL1        0.0000
    415 C           2.0499   19.7974   19.7598 C.ar    1  UNL1        0.0000
    416 C           1.4669   18.5015   19.7621 C.ar    1  UNL1        0.0000
    417 C           1.5975   17.6930   20.9234 C.ar    1  UNL1        0.0000
    418 C           0.5301   16.8243   21.2776 C.ar    1  UNL1        0.0000
    419 C          -0.6304   16.7945   20.4581 C.ar    1  UNL1        0.0000
    420 C          -1.8962   16.5859   21.0694 C.ar    1  UNL1        0.0000
    421 C          -1.9571   16.4144   22.4787 C.ar    1  UNL1        0.0000
    422 C          -3.0821   16.9217   23.1831 C.ar    1  UNL1        0.0000
    423 C          -4.1068   17.5828   22.4537 C.ar    1  UNL1        0.0000
    424 C          -4.7896   18.6701   23.0626 C.ar    1  UNL1        0.0000
    425 C          -4.4238   19.0582   24.3797 C.ar    1  UNL1        0.0000
    426 C          -4.4815   20.4341   24.7300 C.ar    1  UNL1        0.0000
    427 C          -4.9029   21.3738   23.7508 C.ar    1  UNL1        0.0000
    428 C          -4.3200   22.6697   23.7486 C.ar    1  UNL1        0.0000
    429 C          -3.3360   22.9807   24.7255 C.ar    1  UNL1        0.0000
    430 C          -2.2686   23.8493   24.3712 C.ar    1  UNL1        0.0000
    431 C          -2.2226   24.3766   23.0525 C.ar    1  UNL1        0.0000
    432 C          -0.9569   24.5853   22.4413 C.ar    1  UNL1        0.0000
    433 C          -0.8960   24.7568   21.0320 C.ar    1  UNL1        0.0000
    434 C           0.2290   24.2495   20.3275 C.ar    1  UNL1        0.0000
    435 C           0.1392   24.0860   18.9188 C.ar    1  UNL1        0.0000
    436 C           0.8220   22.9987   18.3099 C.ar    1  UNL1        0.0000
    437 C           1.5708   22.1130   19.1310 C.ar    1  UNL1        0.0000
    438 C           1.6284   20.7370   18.7807 C.ar    1  UNL1        0.0000
    439 C           0.9353   20.2950   17.6216 C.ar    1  UNL1        0.0000
    440 C           0.3524   18.9990   17.6239 C.ar    1  UNL1        0.0000
    441 C           0.4829   18.1905   18.7852 C.ar    1  UNL1        0.0000
    442 C          -0.5844   17.3219   19.1394 C.ar    1  UNL1        0.0000
    443 C          -1.7450   17.2921   18.3200 C.ar    1  UNL1        0.0000
    444 C          -3.0107   17.0835   18.9312 C.ar    1  UNL1        0.0000
    445 C          -3.0716   16.9119   20.3405 C.ar    1  UNL1        0.0000
    446 C          -4.1966   17.4192   21.0450 C.ar    1  UNL1        0.0000
    447 C          -5.2213   18.0803   20.3155 C.ar    1  UNL1        0.0000
    448 C          -5.9041   19.1676   20.9244 C.ar    1  UNL1        0.0000
    449 C          -5.5383   19.5558   22.2415 C.ar    1  UNL1        0.0000
    450 C          -5.5960   20.9317   22.5918 C.ar    1  UNL1        0.0000
    451 C          -6.0174   21.8714   21.6127 C.ar    1  UNL1        0.0000
    452 C          -5.4345   23.1673   21.6104 C.ar    1  UNL1        0.0000
    453 C          -4.4505   23.4782   22.5873 C.ar    1  UNL1        0.0000
    454 C          -3.3832   24.3469   22.2331 C.ar    1  UNL1        0.0000
    455 C          -3.3372   24.8742   20.9144 C.ar    1  UNL1        0.0000
    456 C          -2.0714   25.0829   20.3031 C.ar    1  UNL1        0.0000
    457 C          -2.0105   25.2544   18.8938 C.ar    1  UNL1        0.0000
    458 C          -0.8855   24.7471   18.1894 C.ar    1  UNL1        0.0000
    459 C          -0.9753   24.5836   16.7807 C.ar    1  UNL1        0.0000
    460 C          -0.2925   23.4963   16.1717 C.ar    1  UNL1        0.0000
    461 C           0.4562   22.6106   16.9928 C.ar    1  UNL1        0.0000
    462 C           0.5139   21.2346   16.6425 C.ar    1  UNL1        0.0000
    463 C          -0.1792   20.7925   15.4835 C.ar    1  UNL1        0.0000
    464 C          -0.7622   19.4966   15.4858 C.ar    1  UNL1        0.0000
    465 C          -0.6316   18.6881   16.6470 C.ar    1  UNL1        0.0000
    466 C          -1.6990   17.8195   17.0012 C.ar    1  UNL1        0.0000
    467 C          -2.8595   17.7897   16.1818 C.ar    1  UNL1        0.0000
    468 C          -4.1252   17.5811   16.7930 C.ar    1  UNL1        0.0000
    469 C          -4.1862   17.4095   18.2023 C.ar    1  UNL1        0.0000
    470 C          -5.3112   17.9168   18.9068 C.ar    1  UNL1        0.0000
    471 C          -6.3359   18.5779   18.1773 C.ar    1  UNL1        0.0000
    472 C          -7.0187   19.6652   18.7863 C.ar    1  UNL1        0.0000
    473 C          -6.6529   20.0533   20.1034 C.ar    1  UNL1        0.0000
    474 C          -6.7105   21.4293   20.4536 C.ar    1  UNL1        0.0000
    475 C          -7.1320   22.3690   19.4745 C.ar    1  UNL1        0.0000
    476 C          -6.5490   23.6649   19.4722 C.ar    1  UNL1        0.0000
    477 C          -5.5650   23.9758   20.4491 C.ar    1  UNL1        0.0000
    478 C          -4.4977   24.8445   20.0949 C.ar    1  UNL1        0.0000
    479 C          -4.4517   25.3718   18.7762 C.ar    1  UNL1        0.0000
    480 C          -3.1860   25.5804   18.1650 C.ar    1  UNL1        0.0000
    481 C          -3.1250   25.7520   16.7557 C.ar    1  UNL1        0.0000
    482 C          -2.0000   25.2447   16.0512 C.ar    1  UNL1        0.0000
    483 C          -2.0899   25.0812   14.6425 C.ar    1  UNL1        0.0000
    484 C          -1.4071   23.9939   14.0336 C.ar    1  UNL1        0.0000
    485 C          -0.6583   23.1081   14.8546 C.ar    1  UNL1        0.0000
    486 C          -0.6007   21.7322   14.5044 C.ar    1  UNL1        0.0000
    487 C          -1.2938   21.2901   13.3453 C.ar    1  UNL1        0.0000
    488 C          -1.8767   19.9942   13.3476 C.ar    1  UNL1        0.0000
    489 C          -1.7461   19.1857   14.5089 C.ar    1  UNL1        0.0000
    490 C          -2.8135   18.3170   14.8631 C.ar    1  UNL1        0.0000
    491 C          -3.9740   18.2873   14.0436 C.ar    1  UNL1        0.0000
    492 C          -5.2398   18.0786   14.6549 C.ar    1  UNL1        0.0000
    493 C          -5.3007   17.9071   16.0642 C.ar    1  UNL1        0.0000
    494 C          -6.4257   18.4144   16.7686 C.ar    1  UNL1        0.0000
    495 C          -7.4504   19.0755   16.0391 C.ar    1  UNL1        0.0000
    496 C          -8.1332   20.1628   16.6481 C.ar    1  UNL1        0.0000
    497 C          -7.7674   20.5509   17.9652 C.ar    1  UNL1        0.0000
    498 C          -7.8251   21.9269   18.3154 C.ar    1  UNL1        0.0000
    499 C          -8.2465   22.8665   17.3363 C.ar    1  UNL1        0.0000
    500 C          -7.6636   24.1625   17.3341 C.ar    1  UNL1        0.0000
    501 C          -6.6796   24.4734   18.3110 C.ar    1  UNL1        0.0000
    502 C          -5.6122   25.3420   17.9567 C.ar    1  UNL1        0.0000
    503 C          -5.5662   25.8694   16.6380 C.ar    1  UNL1        0.0000
    504 C          -4.3005   26.0780   16.0268 C.ar    1  UNL1        0.0000
    505 C          -4.2396   26.2496   14.6175 C.ar    1  UNL1        0.0000
    506 C          -3.1146   25.7423   13.9130 C.ar    1  UNL1        0.0000
    507 C          -3.2044   25.5787   12.5043 C.ar    1  UNL1        0.0000
    508 C          -2.5216   24.4914   11.8954 C.ar    1  UNL1        0.0000
    509 C          -1.7729   23.6057   12.7165 C.ar    1  UNL1        0.0000
    510 C          -1.7152   22.2298   12.3662 C.ar    1  UNL1        0.0000
    511 C          -2.4083   21.7877   11.2071 C.ar    1  UNL1        0.0000
    512 C          -2.9912   20.4918   11.2094 C.ar    1  UNL1        0.0000
    513 C          -2.8607   19.6833   12.3707 C.ar    1  UNL1        0.0000
    514 C          -3.9280   18.8146   12.7249 C.ar    1  UNL1        0.0000
    515 C          -5.0886   18.7848   11.9055 C.ar    1  UNL1        0.0000
    516 C          -6.3543   18.5762   12.5167 C.ar    1  UNL1        0.0000
    517 C          -6.4152   18.4047   13.9260 C.ar    1  UNL1        0.0000
    518 C          -7.5402   18.9120   14.6304 C.ar    1  UNL1        0.0000
    519 C          -8.5649   19.5731   13.9010 C.ar    1  UNL1        0.0000
    520 C          -9.2478   20.6604   14.5099 C.ar    1  UNL1        0.0000
    521 C          -8.8819   21.0485   15.8270 C.ar    1  UNL1        0.0000
    522 C          -8.9396   22.4244   16.1773 C.ar    1  UNL1        0.0000
    523 C          -9.3610   23.3641   15.1982 C.ar    1  UNL1        0.0000
    524 C          -8.7781   24.6600   15.1959 C.ar    1  UNL1        0.0000
    525 C          -7.7941   24.9710   16.1728 C.ar    1  UNL1        0.0000
    526 C          -6.7268   25.8396   15.8186 C.ar    1  UNL1        0.0000
    527 C          -6.6808   26.3670   14.4998 C.ar    1  UNL1        0.0000
    528 C          -5.4150   26.5756   13.8886 C.ar    1  UNL1        0.0000
    529 C          -5.3541   26.7471   12.4793 C.ar    1  UNL1        0.0000
    530 C          -4.2291   26.2398   11.7749 C.ar    1  UNL1        0.0000
    531 C          -4.3189   26.0763   10.3662 C.ar    1  UNL1        0.0000
    532 C          -3.6361   24.9890    9.7572 C.ar    1  UNL1        0.0000
    533 C          -2.8874   24.1033   10.5783 C.ar    1  UNL1        0.0000
    534 C          -2.8297   22.7273   10.2280 C.ar    1  UNL1        0.0000
    535 C          -3.5228   22.2853    9.0690 C.ar    1  UNL1        0.0000
    536 C          -4.1058   20.9893    9.0713 C.ar    1  UNL1        0.0000
    537 C          -3.9752   20.1808   10.2325 C.ar    1  UNL1        0.0000
    538 C          -5.0426   19.3122   10.5867 C.ar    1  UNL1        0.0000
    539 C          -6.2031   19.2824    9.7673 C.ar    1  UNL1        0.0000
    540 C          -7.4689   19.0738   10.3785 C.ar    1  UNL1        0.0000
    541 C          -7.5298   18.9022   11.7878 C.ar    1  UNL1        0.0000
    542 C          -8.6548   19.4095   12.4923 C.ar    1  UNL1        0.0000
    543 C          -9.6795   20.0706   11.7628 C.ar    1  UNL1        0.0000
    544 C         -10.3623   21.1579   12.3717 C.ar    1  UNL1        0.0000
    545 C          -9.9965   21.5461   13.6889 C.ar    1  UNL1        0.0000
    546 C         -10.0541   22.9220   14.0391 C.ar    1  UNL1        0.0000
    547 C         -10.4756   23.8617   13.0600 C.ar    1  UNL1        0.0000
    548 C          -9.8926   25.1576   13.0577 C.ar    1  UNL1        0.0000
    549 C          -8.9087   25.4685   14.0346 C.ar    1  UNL1        0.0000
    550 C          -7.8413   26.3372   13.6804 C.ar    1  UNL1        0.0000
    551 C          -7.7953   26.8645   12.3617 C.ar    1  UNL1        0.0000
    552 C          -6.5296   27.0732   11.7504 C.ar    1  UNL1        0.0000
    553 C          -6.4686   27.2447   10.3412 C.ar    1  UNL1        0.0000
    554 C          -5.3436   26.7374    9.6367 C.ar    1  UNL1        0.0000
    555 C          -5.4335   26.5739    8.2280 C.ar    1  UNL1        0.0000
    556 C          -4.7507   25.4866    7.6191 C.ar    1  UNL1        0.0000
    557 C          -4.0019   24.6009    8.4401 C.ar    1  UNL1        0.0000
    558 C          -3.9443   23.2249    8.0899 C.ar    1  UNL1        0.0000
    559 C          -4.6374   22.7828    6.9308 C.ar    1  UNL1        0.0000
    560 C          -5.2203   21.4869    6.9331 C.ar    1  UNL1        0.0000
    561 C          -5.0898   20.6784    8.0944 C.ar    1  UNL1        0.0000
    562 C          -6.1571   19.8098    8.4486 C.ar    1  UNL1        0.0000
    563 C          -7.3176   19.7800    7.6291 C.ar    1  UNL1        0.0000
    564 C          -8.5834   19.5714    8.2404 C.ar    1  UNL1        0.0000
    565 C          -8.6443   19.3998    9.6496 C.ar    1  UNL1        0.0000
    566 C          -9.7693   19.9071   10.3541 C.ar    1  UNL1        0.0000
    567 C         -10.7940   20.5682    9.6246 C.ar    1  UNL1        0.0000
    568 C         -11.4768   21.6555   10.2336 C.ar    1  UNL1        0.0000
    569 C         -11.1110   22.0436   11.5507 C.ar    1  UNL1        0.0000
    570 C         -11.1687   23.4196   11.9009 C.ar    1  UNL1        0.0000
    571 C         -11.5901   24.3593   10.9218 C.ar    1  UNL1        0.0000
    572 C         -11.0072   25.6552   10.9195 C.ar    1  UNL1        0.0000
    573 C         -10.0232   25.9661   11.8964 C.ar    1  UNL1        0.0000
    574 C          -8.9559   26.8348   11.5422 C.ar    1  UNL1        0.0000
    575 C          -8.9098   27.3621   10.2235 C.ar    1  UNL1        0.0000
    576 C          -7.6441   27.5707    9.6123 C.ar    1  UNL1        0.0000
    577 C          -7.5832   27.7423    8.2030 C.ar    1  UNL1        0.0000
    578 C          -6.4582   27.2350    7.4985 C.ar    1  UNL1        0.0000
    579 C          -6.5480   27.0715    6.0898 C.ar    1  UNL1        0.0000
    580 C          -5.8652   25.9842    5.4809 C.ar    1  UNL1        0.0000
    581 C          -5.1165   25.0984    6.3019 C.ar    1  UNL1        0.0000
    582 C          -5.0588   23.7225    5.9517 C.ar    1  UNL1        0.0000
    583 C          -5.7519   23.2804    4.7926 C.ar    1  UNL1        0.0000
    584 C          -6.3348   21.9845    4.7949 C.ar    1  UNL1        0.0000
    585 C          -6.2043   21.1760    5.9562 C.ar    1  UNL1        0.0000
    586 C          -7.2716   20.3073    6.3104 C.ar    1  UNL1        0.0000
    587 C          -8.4322   20.2776    5.4910 C.ar    1  UNL1        0.0000
    588 C          -9.6979   20.0689    6.1022 C.ar    1  UNL1        0.0000
    589 C          -9.7588   19.8974    7.5115 C.ar    1  UNL1        0.0000
    590 C         -10.8838   20.4047    8.2159 C.ar    1  UNL1        0.0000
    591 C         -11.9086   21.0658    7.4865 C.ar    1  UNL1        0.0000
    592 C         -12.5914   22.1531    8.0954 C.ar    1  UNL1        0.0000
    593 C         -12.2256   22.5412    9.4125 C.ar    1  UNL1        0.0000
    594 C         -12.2832   23.9172    9.7628 C.ar    1  UNL1        0.0000
    595 C         -12.7047   24.8568    8.7837 C.ar    1  UNL1        0.0000
    596 C         -12.1217   26.1528    8.7814 C.ar    1  UNL1        0.0000
    597 C         -11.1377   26.4637    9.7583 C.ar    1  UNL1        0.0000
    598 C         -10.0704   27.3323    9.4041 C.ar    1  UNL1        0.0000
    599 C         -10.0244   27.8597    8.0853 C.ar    1  UNL1        0.0000
    600 C          -8.7586   28.0683    7.4741 C.ar    1  UNL1        0.0000
    601 C          -8.6977   28.2399    6.0648 C.ar    1  UNL1        0.0000
    602 C          -7.5727   27.7326    5.3604 C.ar    1  UNL1        0.0000
    603 C          -7.6625   27.5690    3.9517 C.ar    1  UNL1        0.0000
    604 C          -6.9797   26.4817    3.3427 C.ar    1  UNL1        0.0000
    605 C          -6.2310   25.5960    4.1638 C.ar    1  UNL1        0.0000
    606 C          -6.1733   24.2201    3.8135 C.ar    1  UNL1        0.0000
    607 C          -6.8664   23.7780    2.6545 C.ar    1  UNL1        0.0000
    608 C          -7.4494   22.4821    2.6567 C.ar    1  UNL1        0.0000
    609 C          -7.3188   21.6736    3.8180 C.ar    1  UNL1        0.0000
    610 C          -8.3862   20.8049    4.1722 C.ar    1  UNL1        0.0000
    611 C          -9.5467   20.7751    3.3528 C.ar    1  UNL1        0.0000
    612 C         -10.8125   20.5665    3.9640 C.ar    1  UNL1        0.0000
    613 C         -10.8734   20.3950    5.3733 C.ar    1  UNL1        0.0000
    614 C         -11.9984   20.9023    6.0778 C.ar    1  UNL1        0.0000
    615 C         -13.0231   21.5634    5.3483 C.ar    1  UNL1        0.0000
    616 C         -13.7059   22.6507    5.9572 C.ar    1  UNL1        0.0000
    617 C         -13.3401   23.0388    7.2743 C.ar    1  UNL1        0.0000
    618 C         -13.3977   24.4147    7.6246 C.ar    1  UNL1        0.0000
    619 C         -13.8192   25.3544    6.6455 C.ar    1  UNL1        0.0000
    620 C         -13.2363   26.6503    6.6432 C.ar    1  UNL1        0.0000
    621 C         -12.2523   26.9613    7.6201 C.ar    1  UNL1        0.0000
    622 C         -11.1849   27.8299    7.2659 C.ar    1  UNL1        0.0000
    623 C         -11.1389   28.3573    5.9472 C.ar    1  UNL1        0.0000
    624 C          -9.8732   28.5659    5.3359 C.ar    1  UNL1        0.0000
    625 C          -9.8123   28.7374    3.9266 C.ar    1  UNL1        0.0000
    626 C          -8.6873   28.2301    3.2222 C.ar    1  UNL1        0.0000
    627 C          -8.7771   28.0666    1.8135 C.ar    1  UNL1        0.0000
    628 C          -8.0943   26.9793    1.2045 C.ar    1  UNL1        0.0000
    629 C          -7.3455   26.0936    2.0256 C.ar    1  UNL1        0.0000
    630 C          -7.2879   24.7176    1.6754 C.ar    1  UNL1        0.0000
    631 C          -7.9810   24.2756    0.5163 C.ar    1  UNL1        0.0000
    632 C          -8.5639   22.9796    0.5186 C.ar    1  UNL1        0.0000
    633 C          -8.4334   22.1711    1.6798 C.ar    1  UNL1        0.0000
    634 C          -9.5007   21.3025    2.0341 C.ar    1  UNL1        0.0000
    635 C         -10.6612   21.2727    1.2146 C.ar    1  UNL1        0.0000
    636 C         -11.9270   21.0641    1.8258 C.ar    1  UNL1        0.0000
    637 C         -11.9879   20.8925    3.2351 C.ar    1  UNL1        0.0000
    638 C         -13.1129   21.3998    3.9396 C.ar    1  UNL1        0.0000
    639 C         -14.1376   22.0609    3.2101 C.ar    1  UNL1        0.0000
    640 C         -14.8204   23.1482    3.8191 C.ar    1  UNL1        0.0000
    641 C         -14.4546   23.5364    5.1362 C.ar    1  UNL1        0.0000
    642 C         -14.5123   24.9123    5.4864 C.ar    1  UNL1        0.0000
    643 C         -14.9337   25.8520    4.5073 C.ar    1  UNL1        0.0000
    644 C         -14.3508   27.1479    4.5050 C.ar    1  UNL1        0.0000
    645 C         -13.3668   27.4588    5.4819 C.ar    1  UNL1        0.0000
    646 C         -12.2995   28.3275    5.1277 C.ar    1  UNL1        0.0000
    647 C         -12.2535   28.8548    3.8090 C.ar    1  UNL1        0.0000
    648 C         -10.9877   29.0635    3.1978 C.ar    1  UNL1        0.0000
    649 C         -10.9268   29.2350    1.7885 C.ar    1  UNL1       -0.0000
    650 C          -9.8018   28.7277    1.0840 C.ar    1  UNL1       -0.0000
    651 C          -9.8916   28.5642   -0.3247 C.ar    1  UNL1       -0.0000
    652 C          -9.2088   27.4769   -0.9336 C.ar    1  UNL1       -0.0000
    653 C          -8.4601   26.5912   -0.1126 C.ar    1  UNL1       -0.0000
    654 C          -8.4024   25.2152   -0.4628 C.ar    1  UNL1       -0.0000
    655 C          -9.0955   24.7731   -1.6219 C.ar    1  UNL1       -0.0000
    656 C          -9.6784   23.4772   -1.6196 C.ar    1  UNL1       -0.0000
    657 C          -9.5479   22.6687   -0.4583 C.ar    1  UNL1       -0.0000
    658 C         -10.6152   21.8001   -0.1041 C.ar    1  UNL1       -0.0000
    659 C         -11.7758   21.7703   -0.9236 C.ar    1  UNL1       -0.0000
    660 C         -13.0415   21.5617   -0.3123 C.ar    1  UNL1       -0.0000
    661 C         -13.1024   21.3901    1.0970 C.ar    1  UNL1       -0.0000
    662 C         -14.2274   21.8974    1.8014 C.ar    1  UNL1       -0.0000
    663 C         -15.2522   22.5585    1.0720 C.ar    1  UNL1       -0.0000
    664 C         -15.9350   23.6458    1.6809 C.ar    1  UNL1       -0.0000
    665 C         -15.5692   24.0339    2.9980 C.ar    1  UNL1       -0.0000
    666 C         -15.6268   25.4099    3.3483 C.ar    1  UNL1       -0.0000
    667 C         -16.0483   26.3496    2.3692 C.ar    1  UNL1       -0.0000
    668 C         -15.4653   27.6455    2.3669 C.ar    1  UNL1       -0.0000
    669 C         -14.4813   27.9564    3.3438 C.ar    1  UNL1       -0.0000
    670 C         -13.4140   28.8251    2.9896 C.ar    1  UNL1       -0.0000
    671 C         -13.3680   29.3524    1.6708 C.ar    1  UNL1       -0.0000
    672 C         -12.1022   29.5610    1.0596 C.ar    1  UNL1       -0.0000
    673 C         -12.0413   29.7326   -0.3497 C.ar    1  UNL1       -0.0000
    674 C         -10.9163   29.2253   -1.0542 C.ar    1  UNL1       -0.0000
    675 C         -11.0061   29.0618   -2.4629 C.ar    1  UNL1       -0.0006
    676 C         -10.3233   27.9745   -3.0718 C.ar    1  UNL1       -0.0006
    677 C          -9.5746   27.0887   -2.2507 C.ar    1  UNL1       -0.0000
    678 C          -9.5170   25.7128   -2.6010 C.ar    1  UNL1       -0.0000
    679 C         -10.2100   25.2707   -3.7600 C.ar    1  UNL1       -0.0006
    680 C         -10.7930   23.9748   -3.7578 C.ar    1  UNL1       -0.0006
    681 C         -10.6624   23.1663   -2.5965 C.ar    1  UNL1       -0.0000
    682 C         -11.7298   22.2976   -2.2423 C.ar    1  UNL1       -0.0000
    683 C         -12.8903   22.2679   -3.0617 C.ar    1  UNL1       -0.0006
    684 C         -14.1561   22.0592   -2.4505 C.ar    1  UNL1       -0.0006
    685 C         -14.2170   21.8877   -1.0412 C.ar    1  UNL1       -0.0000
    686 C         -15.3420   22.3950   -0.3367 C.ar    1  UNL1       -0.0000
    687 C         -16.3667   23.0561   -1.0662 C.ar    1  UNL1       -0.0006
    688 C         -17.0495   24.1434   -0.4573 C.ar    1  UNL1       -0.0006
    689 C         -16.6837   24.5315    0.8598 C.ar    1  UNL1       -0.0000
    690 C         -16.7414   25.9075    1.2101 C.ar    1  UNL1       -0.0000
    691 C         -17.1628   26.8471    0.2310 C.ar    1  UNL1       -0.0006
    692 C         -16.5799   28.1431    0.2287 C.ar    1  UNL1       -0.0006
    693 C         -15.5959   28.4540    1.2056 C.ar    1  UNL1       -0.0000
    694 C         -14.5285   29.3226    0.8514 C.ar    1  UNL1       -0.0000
    695 C         -14.4825   29.8500   -0.4673 C.ar    1  UNL1       -0.0006
    696 C         -13.2168   30.0586   -1.0786 C.ar    1  UNL1       -0.0006
    697 C         -13.1559   30.2302   -2.4879 C.ar    1  UNL1       -0.0089
    698 C         -12.0309   29.7229   -3.1923 C.ar    1  UNL1       -0.0089
    699 C         -12.1207   29.5593   -4.6010 C.ar    1  UNL1       -0.0528
    700 C         -11.4379   28.4720   -5.2100 C.ar    1  UNL1       -0.0528
    701 C         -10.6891   27.5863   -4.3889 C.ar    1  UNL1       -0.0089
    702 C         -10.6315   26.2104   -4.7392 C.ar    1  UNL1       -0.0089
    703 C         -11.3246   25.7683   -5.8982 C.ar    1  UNL1       -0.0528
    704 C         -11.9075   24.4724   -5.8959 C.ar    1  UNL1       -0.0528
    705 C         -11.7770   23.6639   -4.7347 C.ar    1  UNL1       -0.0089
    706 C         -12.8443   22.7952   -4.3804 C.ar    1  UNL1       -0.0089
    707 C         -14.0049   22.7654   -5.1999 C.ar    1  UNL1       -0.0528
    708 C         -15.2706   22.5568   -4.5887 C.ar    1  UNL1       -0.0528
    709 C         -15.3315   22.3853   -3.1794 C.ar    1  UNL1       -0.0089
    710 C         -16.4565   22.8926   -2.4749 C.ar    1  UNL1       -0.0089
    711 C         -17.4812   23.5537   -3.2044 C.ar    1  UNL1       -0.0528
    712 C         -18.1640   24.6410   -2.5954 C.ar    1  UNL1       -0.0528
    713 C         -17.7982   25.0291   -1.2783 C.ar    1  UNL1       -0.0089
    714 C         -17.8559   26.4051   -0.9281 C.ar    1  UNL1       -0.0089
    715 C         -18.2773   27.3447   -1.9072 C.ar    1  UNL1       -0.0528
    716 C         -17.6944   28.6406   -1.9095 C.ar    1  UNL1       -0.0528
    717 C         -16.7104   28.9516   -0.9326 C.ar    1  UNL1       -0.0089
    718 C         -15.6431   29.8202   -1.2868 C.ar    1  UNL1       -0.0089
    719 C         -15.5971   30.3476   -2.6055 C.ar    1  UNL1       -0.0528
    720 C         -14.3313   30.5562   -3.2167 C.ar    1  UNL1       -0.0528
    721 H          19.2017   15.9299   60.5423 H       1  UNL1        0.0624
    722 H          21.1579   15.0478   59.3173 H       1  UNL1        0.0624
    723 H          22.1257   13.5066   58.4542 H       1  UNL1        0.0624
    724 H          22.2260   11.1140   57.8451 H       1  UNL1        0.0624
    725 H          21.3997    9.2771   57.8484 H       1  UNL1        0.0624
    726 H          19.5438    7.7667   58.4643 H       1  UNL1        0.0624
    727 H          17.7496    7.4710   59.3307 H       1  UNL1        0.0624
    728 H          15.7934    8.3531   60.5557 H       1  UNL1        0.0624
    729 H          14.8256    9.8943   61.4188 H       1  UNL1        0.0624
    730 H          14.7253   12.2868   62.0278 H       1  UNL1        0.0624
    731 H          15.5516   14.1237   62.0246 H       1  UNL1        0.0624
    732 H          17.4076   15.6342   61.4087 H       1  UNL1        0.0624
    733 H         -12.6722   30.2188   -5.1719 H       1  UNL1        0.0624
    734 H         -11.4849   28.3281   -6.2308 H       1  UNL1        0.0624
    735 H         -11.4032   26.3778   -6.7273 H       1  UNL1        0.0624
    736 H         -12.4169   24.1244   -6.7233 H       1  UNL1        0.0624
    737 H         -13.9298   22.8931   -6.2212 H       1  UNL1        0.0624
    738 H         -16.1307   22.5304   -5.1584 H       1  UNL1        0.0624
    739 H         -17.7253   23.2494   -4.1598 H       1  UNL1        0.0624
    740 H         -18.9126   25.1401   -3.1010 H       1  UNL1        0.0624
    741 H         -18.9943   27.0904   -2.6045 H       1  UNL1        0.0624
    742 H         -17.9807   29.3438   -2.6085 H       1  UNL1        0.0624
    743 H         -16.4678   30.5751   -3.1106 H       1  UNL1        0.0624
    744 H         -14.2669   30.9378   -4.1734 H       1  UNL1        0.0624
@<TRIPOS>BOND
     1     1     2   ar
     2     1    24   ar
     3     2     3   ar
     4     5     6   ar
     5     5     4   ar
     6     6     7   ar
     7     9    10   ar
     8     9     8   ar
     9    10    11   ar
    10    13    14   ar
    11    13    12   ar
    12    14    15   ar
    13    17    18   ar
    14    17    16   ar
    15    18    19   ar
    16    21    22   ar
    17    21    20   ar
    18    22    23   ar
    19     3     4   ar
    20     3    26   ar
    21     4    29   ar
    22     7     8   ar
    23     7    30   ar
    24     8    33   ar
    25    11    12   ar
    26    11    34   ar
    27    12    37   ar
    28    15    16   ar
    29    15    38   ar
    30    16    41   ar
    31    19    20   ar
    32    19    42   ar
    33    20    45   ar
    34    23    24   ar
    35    23    46   ar
    36    24    25   ar
    37    25    26   ar
    38    25    48   ar
    39    26    27   ar
    40    46    45   ar
    41    46    47   ar
    42    37    38   ar
    43    37    36   ar
    44    29    30   ar
    45    29    28   ar
    46    30    31   ar
    47    38    39   ar
    48    41    42   ar
    49    41    40   ar
    50    33    34   ar
    51    33    32   ar
    52    34    35   ar
    53    42    43   ar
    54    45    44   ar
    55    27    28   ar
    56    27    50   ar
    57    31    32   ar
    58    31    54   ar
    59    32    57   ar
    60    35    36   ar
    61    35    58   ar
    62    36    61   ar
    63    40    39   ar
    64    40    65   ar
    65    43    44   ar
    66    43    66   ar
    67    44    69   ar
    68    39    62   ar
    69    28    53   ar
    70    47    48   ar
    71    47    70   ar
    72    48    49   ar
    73    49    50   ar
    74    49    72   ar
    75    50    51   ar
    76    53    54   ar
    77    53    52   ar
    78    54    55   ar
    79    57    58   ar
    80    57    56   ar
    81    58    59   ar
    82    61    62   ar
    83    61    60   ar
    84    62    63   ar
    85    65    66   ar
    86    65    64   ar
    87    66    67   ar
    88    69    70   ar
    89    69    68   ar
    90    70    71   ar
    91    55    56   ar
    92    55    78   ar
    93    56    81   ar
    94    63    64   ar
    95    63    86   ar
    96    64    89   ar
    97    51    52   ar
    98    51    74   ar
    99    52    77   ar
   100    67    68   ar
   101    67    90   ar
   102    68    93   ar
   103    59    60   ar
   104    59    82   ar
   105    60    85   ar
   106    71    72   ar
   107    71    94   ar
   108    72    73   ar
   109    73    74   ar
   110    73    96   ar
   111    74    75   ar
   112    85    86   ar
   113    85    84   ar
   114    86    87   ar
   115    77    78   ar
   116    77    76   ar
   117    78    79   ar
   118    89    90   ar
   119    89    88   ar
   120    90    91   ar
   121    81    82   ar
   122    81    80   ar
   123    82    83   ar
   124    93    94   ar
   125    93    92   ar
   126    94    95   ar
   127    75    76   ar
   128    75    98   ar
   129    76   101   ar
   130    79    80   ar
   131    79   102   ar
   132    80   105   ar
   133    83    84   ar
   134    83   106   ar
   135    84   109   ar
   136    91    92   ar
   137    91   114   ar
   138    92   117   ar
   139    87    88   ar
   140    87   110   ar
   141    88   113   ar
   142    95    96   ar
   143    95   118   ar
   144    96    97   ar
   145    97    98   ar
   146    97   120   ar
   147    98    99   ar
   148   101   102   ar
   149   101   100   ar
   150   102   103   ar
   151   105   106   ar
   152   105   104   ar
   153   106   107   ar
   154   109   110   ar
   155   109   108   ar
   156   110   111   ar
   157   113   114   ar
   158   113   112   ar
   159   114   115   ar
   160   117   118   ar
   161   117   116   ar
   162   118   119   ar
   163   103   104   ar
   164   103   126   ar
   165   104   129   ar
   166   111   112   ar
   167   111   134   ar
   168   112   137   ar
   169    99   100   ar
   170    99   122   ar
   171   100   125   ar
   172   115   116   ar
   173   115   138   ar
   174   116   141   ar
   175   107   108   ar
   176   107   130   ar
   177   108   133   ar
   178   119   120   ar
   179   119   142   ar
   180   120   121   ar
   181   121   122   ar
   182   121   144   ar
   183   122   123   ar
   184   141   142   ar
   185   141   140   ar
   186   142   143   ar
   187   125   126   ar
   188   125   124   ar
   189   126   127   ar
   190   137   138   ar
   191   137   136   ar
   192   129   130   ar
   193   129   128   ar
   194   130   131   ar
   195   133   134   ar
   196   133   132   ar
   197   134   135   ar
   198   138   139   ar
   199   123   124   ar
   200   123   146   ar
   201   124   149   ar
   202   135   136   ar
   203   135   158   ar
   204   136   161   ar
   205   127   128   ar
   206   127   150   ar
   207   132   131   ar
   208   132   157   ar
   209   139   140   ar
   210   139   162   ar
   211   140   165   ar
   212   128   153   ar
   213   131   154   ar
   214   143   144   ar
   215   143   166   ar
   216   144   145   ar
   217   145   146   ar
   218   145   168   ar
   219   146   147   ar
   220   150   149   ar
   221   150   151   ar
   222   158   157   ar
   223   158   159   ar
   224   149   148   ar
   225   153   154   ar
   226   153   152   ar
   227   154   155   ar
   228   157   156   ar
   229   161   162   ar
   230   161   160   ar
   231   162   163   ar
   232   165   166   ar
   233   165   164   ar
   234   166   167   ar
   235   152   151   ar
   236   152   177   ar
   237   148   147   ar
   238   148   173   ar
   239   159   160   ar
   240   159   182   ar
   241   160   185   ar
   242   147   170   ar
   243   151   174   ar
   244   163   164   ar
   245   163   186   ar
   246   164   189   ar
   247   155   156   ar
   248   155   178   ar
   249   156   181   ar
   250   167   168   ar
   251   167   190   ar
   252   168   169   ar
   253   169   170   ar
   254   169   192   ar
   255   170   171   ar
   256   181   182   ar
   257   181   180   ar
   258   182   183   ar
   259   173   174   ar
   260   173   172   ar
   261   174   175   ar
   262   185   186   ar
   263   185   184   ar
   264   186   187   ar
   265   177   178   ar
   266   177   176   ar
   267   178   179   ar
   268   189   190   ar
   269   189   188   ar
   270   190   191   ar
   271   171   172   ar
   272   171   194   ar
   273   172   197   ar
   274   175   176   ar
   275   175   198   ar
   276   176   201   ar
   277   179   180   ar
   278   179   202   ar
   279   180   205   ar
   280   187   188   ar
   281   187   210   ar
   282   188   213   ar
   283   183   184   ar
   284   183   206   ar
   285   184   209   ar
   286   191   192   ar
   287   191   214   ar
   288   192   193   ar
   289   193   194   ar
   290   193   216   ar
   291   194   195   ar
   292   197   198   ar
   293   197   196   ar
   294   198   199   ar
   295   201   202   ar
   296   201   200   ar
   297   202   203   ar
   298   205   206   ar
   299   205   204   ar
   300   206   207   ar
   301   209   210   ar
   302   209   208   ar
   303   210   211   ar
   304   213   214   ar
   305   213   212   ar
   306   214   215   ar
   307   199   200   ar
   308   199   222   ar
   309   200   225   ar
   310   207   208   ar
   311   207   230   ar
   312   208   233   ar
   313   195   196   ar
   314   195   218   ar
   315   196   221   ar
   316   211   212   ar
   317   211   234   ar
   318   212   237   ar
   319   203   204   ar
   320   203   226   ar
   321   204   229   ar
   322   215   216   ar
   323   215   238   ar
   324   216   217   ar
   325   217   218   ar
   326   217   240   ar
   327   218   219   ar
   328   229   230   ar
   329   229   228   ar
   330   230   231   ar
   331   221   222   ar
   332   221   220   ar
   333   222   223   ar
   334   233   234   ar
   335   233   232   ar
   336   234   235   ar
   337   225   226   ar
   338   225   224   ar
   339   226   227   ar
   340   237   238   ar
   341   237   236   ar
   342   238   239   ar
   343   219   220   ar
   344   219   242   ar
   345   220   245   ar
   346   223   224   ar
   347   223   246   ar
   348   224   249   ar
   349   227   228   ar
   350   227   250   ar
   351   228   253   ar
   352   235   236   ar
   353   235   258   ar
   354   236   261   ar
   355   231   232   ar
   356   231   254   ar
   357   232   257   ar
   358   239   240   ar
   359   239   262   ar
   360   240   241   ar
   361   241   242   ar
   362   241   264   ar
   363   242   243   ar
   364   250   249   ar
   365   250   251   ar
   366   249   248   ar
   367   245   246   ar
   368   245   244   ar
   369   246   247   ar
   370   253   254   ar
   371   253   252   ar
   372   254   255   ar
   373   257   258   ar
   374   257   256   ar
   375   258   259   ar
   376   261   262   ar
   377   261   260   ar
   378   262   263   ar
   379   247   248   ar
   380   247   270   ar
   381   243   244   ar
   382   243   266   ar
   383   255   256   ar
   384   255   278   ar
   385   256   281   ar
   386   244   269   ar
   387   248   273   ar
   388   259   260   ar
   389   259   282   ar
   390   260   285   ar
   391   251   252   ar
   392   251   274   ar
   393   252   277   ar
   394   263   264   ar
   395   263   286   ar
   396   264   265   ar
   397   265   266   ar
   398   265   288   ar
   399   266   267   ar
   400   269   270   ar
   401   269   268   ar
   402   270   271   ar
   403   273   274   ar
   404   273   272   ar
   405   274   275   ar
   406   277   278   ar
   407   277   276   ar
   408   278   279   ar
   409   281   282   ar
   410   281   280   ar
   411   282   283   ar
   412   285   286   ar
   413   285   284   ar
   414   286   287   ar
   415   271   272   ar
   416   271   294   ar
   417   272   297   ar
   418   279   280   ar
   419   279   302   ar
   420   280   305   ar
   421   267   268   ar
   422   267   290   ar
   423   268   293   ar
   424   283   284   ar
   425   283   306   ar
   426   284   309   ar
   427   275   276   ar
   428   275   298   ar
   429   276   301   ar
   430   287   288   ar
   431   287   310   ar
   432   288   289   ar
   433   289   290   ar
   434   289   312   ar
   435   290   291   ar
   436   293   294   ar
   437   293   292   ar
   438   294   295   ar
   439   297   298   ar
   440   297   296   ar
   441   298   299   ar
   442   301   302   ar
   443   301   300   ar
   444   302   303   ar
   445   305   306   ar
   446   305   304   ar
   447   306   307   ar
   448   309   310   ar
   449   309   308   ar
   450   310   311   ar
   451   291   292   ar
   452   291   314   ar
   453   292   317   ar
   454   295   296   ar
   455   295   318   ar
   456   296   321   ar
   457   299   300   ar
   458   299   322   ar
   459   300   325   ar
   460   303   304   ar
   461   303   326   ar
   462   304   329   ar
   463   307   308   ar
   464   307   330   ar
   465   308   333   ar
   466   311   312   ar
   467   311   334   ar
   468   312   313   ar
   469   313   314   ar
   470   313   336   ar
   471   314   315   ar
   472   334   333   ar
   473   334   335   ar
   474   325   326   ar
   475   325   324   ar
   476   317   318   ar
   477   317   316   ar
   478   318   319   ar
   479   326   327   ar
   480   329   330   ar
   481   329   328   ar
   482   321   322   ar
   483   321   320   ar
   484   322   323   ar
   485   330   331   ar
   486   333   332   ar
   487   315   316   ar
   488   315   338   ar
   489   319   320   ar
   490   319   342   ar
   491   320   345   ar
   492   323   324   ar
   493   323   346   ar
   494   324   349   ar
   495   328   327   ar
   496   328   353   ar
   497   331   332   ar
   498   331   354   ar
   499   332   357   ar
   500   327   350   ar
   501   316   341   ar
   502   335   336   ar
   503   335   358   ar
   504   336   337   ar
   505   337   338   ar
   506   337   360   ar
   507   338   339   ar
   508   341   342   ar
   509   341   340   ar
   510   342   343   ar
   511   345   346   ar
   512   345   344   ar
   513   346   347   ar
   514   349   350   ar
   515   349   348   ar
   516   350   351   ar
   517   353   354   ar
   518   353   352   ar
   519   354   355   ar
   520   357   358   ar
   521   357   356   ar
   522   358   359   ar
   523   343   344   ar
   524   343   366   ar
   525   344   369   ar
   526   351   352   ar
   527   351   374   ar
   528   352   377   ar
   529   339   340   ar
   530   339   362   ar
   531   340   365   ar
   532   355   356   ar
   533   355   378   ar
   534   356   381   ar
   535   347   348   ar
   536   347   370   ar
   537   348   373   ar
   538   359   360   ar
   539   359   382   ar
   540   360   361   ar
   541   361   362   ar
   542   361   384   ar
   543   362   363   ar
   544   365   366   ar
   545   365   364   ar
   546   366   367   ar
   547   369   370   ar
   548   369   368   ar
   549   370   371   ar
   550   373   374   ar
   551   373   372   ar
   552   374   375   ar
   553   377   378   ar
   554   377   376   ar
   555   378   379   ar
   556   381   382   ar
   557   381   380   ar
   558   382   383   ar
   559   367   368   ar
   560   367   390   ar
   561   368   393   ar
   562   375   376   ar
   563   375   398   ar
   564   376   401   ar
   565   363   364   ar
   566   363   386   ar
   567   364   389   ar
   568   379   380   ar
   569   379   402   ar
   570   380   405   ar
   571   371   372   ar
   572   371   394   ar
   573   372   397   ar
   574   383   384   ar
   575   383   406   ar
   576   384   385   ar
   577   385   386   ar
   578   385   408   ar
   579   386   387   ar
   580   389   390   ar
   581   389   388   ar
   582   390   391   ar
   583   393   394   ar
   584   393   392   ar
   585   394   395   ar
   586   397   398   ar
   587   397   396   ar
   588   398   399   ar
   589   401   402   ar
   590   401   400   ar
   591   402   403   ar
   592   405   406   ar
   593   405   404   ar
   594   406   407   ar
   595   391   392   ar
   596   391   414   ar
   597   392   417   ar
   598   399   400   ar
   599   399   422   ar
   600   400   425   ar
   601   387   388   ar
   602   387   410   ar
   603   388   413   ar
   604   403   404   ar
   605   403   426   ar
   606   404   429   ar
   607   395   396   ar
   608   395   418   ar
   609   396   421   ar
   610   407   408   ar
   611   407   430   ar
   612   408   409   ar
   613   409   410   ar
   614   409   432   ar
   615   410   411   ar
   616   429   430   ar
   617   429   428   ar
   618   430   431   ar
   619   413   414   ar
   620   413   412   ar
   621   414   415   ar
   622   425   426   ar
   623   425   424   ar
   624   417   418   ar
   625   417   416   ar
   626   418   419   ar
   627   421   422   ar
   628   421   420   ar
   629   422   423   ar
   630   426   427   ar
   631   411   412   ar
   632   411   434   ar
   633   412   437   ar
   634   423   424   ar
   635   423   446   ar
   636   424   449   ar
   637   415   416   ar
   638   415   438   ar
   639   420   419   ar
   640   420   445   ar
   641   427   428   ar
   642   427   450   ar
   643   428   453   ar
   644   416   441   ar
   645   419   442   ar
   646   431   432   ar
   647   431   454   ar
   648   432   433   ar
   649   433   434   ar
   650   433   456   ar
   651   434   435   ar
   652   438   437   ar
   653   438   439   ar
   654   446   445   ar
   655   446   447   ar
   656   437   436   ar
   657   441   442   ar
   658   441   440   ar
   659   442   443   ar
   660   445   444   ar
   661   449   450   ar
   662   449   448   ar
   663   450   451   ar
   664   453   454   ar
   665   453   452   ar
   666   454   455   ar
   667   440   439   ar
   668   440   465   ar
   669   436   435   ar
   670   436   461   ar
   671   447   448   ar
   672   447   470   ar
   673   448   473   ar
   674   435   458   ar
   675   439   462   ar
   676   451   452   ar
   677   451   474   ar
   678   452   477   ar
   679   443   444   ar
   680   443   466   ar
   681   444   469   ar
   682   455   456   ar
   683   455   478   ar
   684   456   457   ar
   685   457   458   ar
   686   457   480   ar
   687   458   459   ar
   688   461   462   ar
   689   461   460   ar
   690   462   463   ar
   691   465   466   ar
   692   465   464   ar
   693   466   467   ar
   694   469   470   ar
   695   469   468   ar
   696   470   471   ar
   697   473   474   ar
   698   473   472   ar
   699   474   475   ar
   700   477   478   ar
   701   477   476   ar
   702   478   479   ar
   703   463   464   ar
   704   463   486   ar
   705   464   489   ar
   706   471   472   ar
   707   471   494   ar
   708   472   497   ar
   709   459   460   ar
   710   459   482   ar
   711   460   485   ar
   712   475   476   ar
   713   475   498   ar
   714   476   501   ar
   715   467   468   ar
   716   467   490   ar
   717   468   493   ar
   718   479   480   ar
   719   479   502   ar
   720   480   481   ar
   721   481   482   ar
   722   481   504   ar
   723   482   483   ar
   724   485   486   ar
   725   485   484   ar
   726   486   487   ar
   727   489   490   ar
   728   489   488   ar
   729   490   491   ar
   730   493   494   ar
   731   493   492   ar
   732   494   495   ar
   733   497   498   ar
   734   497   496   ar
   735   498   499   ar
   736   501   502   ar
   737   501   500   ar
   738   502   503   ar
   739   487   488   ar
   740   487   510   ar
   741   488   513   ar
   742   495   496   ar
   743   495   518   ar
   744   496   521   ar
   745   483   484   ar
   746   483   506   ar
   747   484   509   ar
   748   499   500   ar
   749   499   522   ar
   750   500   525   ar
   751   491   492   ar
   752   491   514   ar
   753   492   517   ar
   754   503   504   ar
   755   503   526   ar
   756   504   505   ar
   757   505   506   ar
   758   505   528   ar
   759   506   507   ar
   760   509   510   ar
   761   509   508   ar
   762   510   511   ar
   763   513   514   ar
   764   513   512   ar
   765   514   515   ar
   766   517   518   ar
   767   517   516   ar
   768   518   519   ar
   769   521   522   ar
   770   521   520   ar
   771   522   523   ar
   772   525   526   ar
   773   525   524   ar
   774   526   527   ar
   775   511   512   ar
   776   511   534   ar
   777   512   537   ar
   778   519   520   ar
   779   519   542   ar
   780   520   545   ar
   781   507   508   ar
   782   507   530   ar
   783   508   533   ar
   784   523   524   ar
   785   523   546   ar
   786   524   549   ar
   787   515   516   ar
   788   515   538   ar
   789   516   541   ar
   790   527   528   ar
   791   527   550   ar
   792   528   529   ar
   793   529   530   ar
   794   529   552   ar
   795   530   531   ar
   796   545   546   ar
   797   545   544   ar
   798   546   547   ar
   799   533   534   ar
   800   533   532   ar
   801   534   535   ar
   802   541   542   ar
   803   541   540   ar
   804   542   543   ar
   805   537   538   ar
   806   537   536   ar
   807   538   539   ar
   808   549   550   ar
   809   549   548   ar
   810   550   551   ar
   811   535   536   ar
   812   535   558   ar
   813   536   561   ar
   814   539   540   ar
   815   539   562   ar
   816   540   565   ar
   817   543   544   ar
   818   543   566   ar
   819   544   569   ar
   820   547   548   ar
   821   547   570   ar
   822   548   573   ar
   823   531   532   ar
   824   531   554   ar
   825   532   557   ar
   826   551   552   ar
   827   551   574   ar
   828   552   553   ar
   829   553   554   ar
   830   553   576   ar
   831   554   555   ar
   832   557   558   ar
   833   557   556   ar
   834   558   559   ar
   835   561   562   ar
   836   561   560   ar
   837   562   563   ar
   838   565   566   ar
   839   565   564   ar
   840   566   567   ar
   841   569   570   ar
   842   569   568   ar
   843   570   571   ar
   844   573   574   ar
   845   573   572   ar
   846   574   575   ar
   847   555   556   ar
   848   555   578   ar
   849   556   581   ar
   850   559   560   ar
   851   559   582   ar
   852   560   585   ar
   853   563   564   ar
   854   563   586   ar
   855   564   589   ar
   856   567   568   ar
   857   567   590   ar
   858   568   593   ar
   859   571   572   ar
   860   571   594   ar
   861   572   597   ar
   862   575   576   ar
   863   575   598   ar
   864   576   577   ar
   865   577   578   ar
   866   577   600   ar
   867   578   579   ar
   868   598   597   ar
   869   598   599   ar
   870   589   590   ar
   871   589   588   ar
   872   581   582   ar
   873   581   580   ar
   874   582   583   ar
   875   590   591   ar
   876   593   594   ar
   877   593   592   ar
   878   585   586   ar
   879   585   584   ar
   880   586   587   ar
   881   594   595   ar
   882   597   596   ar
   883   579   580   ar
   884   579   602   ar
   885   583   584   ar
   886   583   606   ar
   887   584   609   ar
   888   587   588   ar
   889   587   610   ar
   890   588   613   ar
   891   592   591   ar
   892   592   617   ar
   893   595   596   ar
   894   595   618   ar
   895   596   621   ar
   896   591   614   ar
   897   580   605   ar
   898   599   600   ar
   899   599   622   ar
   900   600   601   ar
   901   601   602   ar
   902   601   624   ar
   903   602   603   ar
   904   605   606   ar
   905   605   604   ar
   906   606   607   ar
   907   609   610   ar
   908   609   608   ar
   909   610   611   ar
   910   613   614   ar
   911   613   612   ar
   912   614   615   ar
   913   617   618   ar
   914   617   616   ar
   915   618   619   ar
   916   621   622   ar
   917   621   620   ar
   918   622   623   ar
   919   607   608   ar
   920   607   630   ar
   921   608   633   ar
   922   615   616   ar
   923   615   638   ar
   924   616   641   ar
   925   603   604   ar
   926   603   626   ar
   927   604   629   ar
   928   619   620   ar
   929   619   642   ar
   930   620   645   ar
   931   611   612   ar
   932   611   634   ar
   933   612   637   ar
   934   623   624   ar
   935   623   646   ar
   936   624   625   ar
   937   625   626   ar
   938   625   648   ar
   939   626   627   ar
   940   637   638   ar
   941   637   636   ar
   942   638   639   ar
   943   629   630   ar
   944   629   628   ar
   945   630   631   ar
   946   641   642   ar
   947   641   640   ar
   948   642   643   ar
   949   633   634   ar
   950   633   632   ar
   951   634   635   ar
   952   645   646   ar
   953   645   644   ar
   954   646   647   ar
   955   627   628   ar
   956   627   650   ar
   957   628   653   ar
   958   631   632   ar
   959   631   654   ar
   960   632   657   ar
   961   635   636   ar
   962   635   658   ar
   963   636   661   ar
   964   643   644   ar
   965   643   666   ar
   966   644   669   ar
   967   639   640   ar
   968   639   662   ar
   969   640   665   ar
   970   647   648   ar
   971   647   670   ar
   972   648   649   ar
   973   649   650   ar
   974   649   672   ar
   975   650   651   ar
   976   653   654   ar
   977   653   652   ar
   978   654   655   ar
   979   657   658   ar
   980   657   656   ar
   981   658   659   ar
   982   661   662   ar
   983   661   660   ar
   984   662   663   ar
   985   665   666   ar
   986   665   664   ar
   987   666   667   ar
   988   669   670   ar
   989   669   668   ar
   990   670   671   ar
   991   655   656   ar
   992   655   678   ar
   993   656   681   ar
   994   663   664   ar
   995   663   686   ar
   996   664   689   ar
   997   651   652   ar
   998   651   674   ar
   999   652   677   ar
  1000   667   668   ar
  1001   667   690   ar
  1002   668   693   ar
  1003   659   660   ar
  1004   659   682   ar
  1005   660   685   ar
  1006   671   672   ar
  1007   671   694   ar
  1008   672   673   ar
  1009   673   674   ar
  1010   673   696   ar
  1011   674   675   ar
  1012   693   694   ar
  1013   693   692   ar
  1014   694   695   ar
  1015   677   678   ar
  1016   677   676   ar
  1017   678   679   ar
  1018   689   690   ar
  1019   689   688   ar
  1020   681   682   ar
  1021   681   680   ar
  1022   682   683   ar
  1023   685   686   ar
  1024   685   684   ar
  1025   686   687   ar
  1026   690   691   ar
  1027   675   676   ar
  1028   675   698   ar
  1029   676   701   ar
  1030   687   688   ar
  1031   687   710   ar
  1032   688   713   ar
  1033   679   680   ar
  1034   679   702   ar
  1035   684   683   ar
  1036   684   709   ar
  1037   691   692   ar
  1038   691   714   ar
  1039   692   717   ar
  1040   680   705   ar
  1041   683   706   ar
  1042   695   696   ar
  1043   695   718   ar
  1044   696   697   ar
  1045   697   698   ar
  1046   697   720   ar
  1047   698   699   ar
  1048   702   701   ar
  1049   702   703   ar
  1050   710   709   ar
  1051   710   711   ar
  1052   701   700   ar
  1053   705   706   ar
  1054   705   704   ar
  1055   706   707   ar
  1056   709   708   ar
  1057   713   714   ar
  1058   713   712   ar
  1059   714   715   ar
  1060   717   718   ar
  1061   717   716   ar
  1062   718   719   ar
  1063   704   703   ar
  1064   700   699   ar
  1065   711   712   ar
  1066   715   716   ar
  1067   707   708   ar
  1068   719   720   ar
  1069     1   721    1
  1070     2   722    1
  1071     5   723    1
  1072     6   724    1
  1073     9   725    1
  1074    10   726    1
  1075    13   727    1
  1076    14   728    1
  1077    17   729    1
  1078    18   730    1
  1079    21   731    1
  1080    22   732    1
  1081   699   733    1
  1082   700   734    1
  1083   703   735    1
  1084   704   736    1
  1085   707   737    1
  1086   708   738    1
  1087   711   739    1
  1088   712   740    1
  1089   715   741    1
  1090   716   742    1
  1091   719   743    1
  1092   720   744    1
