# This is a comment line. It should be ignored.
# Empty lines below should also be ignored.



@<TRIPOS>MOLECULE
pentane
 17 16 0 0 0
SMALL
GASTEIGER

@<TRIPOS>ATOM
      1 C          -2.8045    3.9964   -1.4128 C.3     1  UNL1       -0.0653
      2 C          -2.7484    3.3174   -0.0536 C.3     1  UNL1       -0.0559
      3 H          -3.6840    4.6446   -1.4767 H       1  UNL1        0.0230
      4 H          -2.8678    3.2576   -2.2181 H       1  UNL1        0.0230
      5 H          -1.9154    4.6126   -1.5806 H       1  UNL1        0.0230
      6 C          -1.5288    2.4040    0.0663 C.3     1  UNL1       -0.0536
      7 H          -3.6655    2.7359    0.0959 H       1  UNL1        0.0263
      8 H          -2.7185    4.0835    0.7299 H       1  UNL1        0.0263
      9 C          -0.2286    3.1846   -0.1246 C.3     1  UNL1       -0.0559
     10 H          -1.5920    1.6061   -0.6838 H       1  UNL1        0.0265
     11 H          -1.5265    1.9213    1.0512 H       1  UNL1        0.0265
     12 C          -0.0892    4.2949    0.9046 C.3     1  UNL1       -0.0653
     13 H          -0.2001    3.6206   -1.1300 H       1  UNL1        0.0263
     14 H           0.6287    2.5066   -0.0404 H       1  UNL1        0.0263
     15 H          -0.9150    5.0091    0.8255 H       1  UNL1        0.0230
     16 H           0.8472    4.8399    0.7496 H       1  UNL1        0.0230
     17 H          -0.0817    3.8889    1.9212 H       1  UNL1        0.0230
@<TRIPOS>BOND
     1    14     9    1
     2     8     2    1
     3    17    12    1
     4    10     6    1
     5     5     1    1
     6    16    12    1
     7     9    12    1
     8     9     6    1
     9     9    13    1
    10     2     6    1
    11     2     1    1
    12     2     7    1
    13    12    15    1
    14     3     1    1
    15     6    11    1
    16     1     4    1
@<TRIPOS>MOLECULE
pentane
 17 16 0 0 0
SMALL
GASTEIGER

@<TRIPOS>ATOM
      1 C          -2.7298    4.4129    1.0005 C.3     1  UNL1       -0.0653
      2 C          -2.7484    3.3174   -0.0536 C.3     1  UNL1       -0.0559
      3 H          -3.6107    5.0541    0.8964 H       1  UNL1        0.0230
      4 H          -1.8387    5.0405    0.8984 H       1  UNL1        0.0230
      5 H          -2.7368    3.9871    2.0090 H       1  UNL1        0.0230
      6 C          -1.5288    2.4040    0.0663 C.3     1  UNL1       -0.0536
      7 H          -2.7735    3.7765   -1.0488 H       1  UNL1        0.0263
      8 H          -3.6668    2.7289    0.0556 H       1  UNL1        0.0263
      9 C          -0.2286    3.1846   -0.1246 C.3     1  UNL1       -0.0559
     10 H          -1.5920    1.6061   -0.6838 H       1  UNL1        0.0265
     11 H          -1.5265    1.9213    1.0512 H       1  UNL1        0.0265
     12 C          -0.1627    3.8294   -1.4999 C.3     1  UNL1       -0.0653
     13 H           0.6299    2.5144   -0.0003 H       1  UNL1        0.0263
     14 H          -0.1459    3.9636    0.6421 H       1  UNL1        0.0263
     15 H          -0.2104    3.0736   -2.2903 H       1  UNL1        0.0230
     16 H           0.7748    4.3823   -1.6147 H       1  UNL1        0.0230
     17 H          -0.9907    4.5309   -1.6443 H       1  UNL1        0.0230
@<TRIPOS>BOND
     1    14     9    1
     2     8     2    1
     3    17    12    1
     4    10     6    1
     5     5     1    1
     6    16    12    1
     7     9    12    1
     8     9     6    1
     9     9    13    1
    10     2     6    1
    11     2     1    1
    12     2     7    1
    13    12    15    1
    14     3     1    1
    15     6    11    1
    16     1     4    1
@<TRIPOS>MOLECULE
pentane
 17 16 0 0 0
SMALL
GASTEIGER

@<TRIPOS>ATOM
      1 C          -4.0432    2.5483    0.1546 C.3     1  UNL1       -0.0653
      2 C          -2.7484    3.3174   -0.0536 C.3     1  UNL1       -0.0559
      3 H          -4.9021    3.2207    0.0645 H       1  UNL1        0.0230
      4 H          -4.0725    2.0912    1.1488 H       1  UNL1        0.0230
      5 H          -4.1528    1.7552   -0.5920 H       1  UNL1        0.0230
      6 C          -1.5288    2.4040    0.0663 C.3     1  UNL1       -0.0536
      7 H          -2.6852    4.1224    0.6878 H       1  UNL1        0.0263
      8 H          -2.7652    3.7884   -1.0434 H       1  UNL1        0.0263
      9 C          -0.2286    3.1846   -0.1246 C.3     1  UNL1       -0.0559
     10 H          -1.5920    1.6061   -0.6838 H       1  UNL1        0.0265
     11 H          -1.5265    1.9213    1.0512 H       1  UNL1        0.0265
     12 C           0.9866    2.2767   -0.0215 C.3     1  UNL1       -0.0653
     13 H          -0.1532    3.9735    0.6327 H       1  UNL1        0.0263
     14 H          -0.2290    3.6748   -1.1051 H       1  UNL1        0.0263
     15 H           1.0344    1.7952    0.9604 H       1  UNL1        0.0230
     16 H           1.9050    2.8554   -0.1612 H       1  UNL1        0.0230
     17 H           0.9581    1.4947   -0.7871 H       1  UNL1        0.0230
@<TRIPOS>BOND
     1    14     9    1
     2     8     2    1
     3    17    12    1
     4    10     6    1
     5     5     1    1
     6    16    12    1
     7     9    12    1
     8     9     6    1
     9     9    13    1
    10     2     6    1
    11     2     1    1
    12     2     7    1
    13    12    15    1
    14     3     1    1
    15     6    11    1
    16     1     4    1
@<TRIPOS>MOLECULE
pentane
 17 16 0 0 0
SMALL
GASTEIGER

@<TRIPOS>ATOM
      1 C          -4.0432    2.5483    0.1546 C.3     1  UNL1       -0.0653
      2 C          -2.7484    3.3174   -0.0536 C.3     1  UNL1       -0.0559
      3 H          -4.9021    3.2207    0.0645 H       1  UNL1        0.0230
      4 H          -4.0725    2.0912    1.1488 H       1  UNL1        0.0230
      5 H          -4.1528    1.7552   -0.5920 H       1  UNL1        0.0230
      6 C          -1.5288    2.4040    0.0663 C.3     1  UNL1       -0.0536
      7 H          -2.6852    4.1224    0.6878 H       1  UNL1        0.0263
      8 H          -2.7652    3.7884   -1.0434 H       1  UNL1        0.0263
      9 C          -0.2286    3.1846   -0.1246 C.3     1  UNL1       -0.0559
     10 H          -1.5920    1.6061   -0.6838 H       1  UNL1        0.0265
     11 H          -1.5265    1.9213    1.0512 H       1  UNL1        0.0265
     12 C          -0.0892    4.2949    0.9046 C.3     1  UNL1       -0.0653
     13 H          -0.2001    3.6206   -1.1300 H       1  UNL1        0.0263
     14 H           0.6287    2.5066   -0.0404 H       1  UNL1        0.0263
     15 H          -0.9150    5.0091    0.8255 H       1  UNL1        0.0230
     16 H           0.8472    4.8399    0.7496 H       1  UNL1        0.0230
     17 H          -0.0817    3.8889    1.9212 H       1  UNL1        0.0230
@<TRIPOS>BOND
     1    14     9    1
     2     8     2    1
     3    17    12    1
     4    10     6    1
     5     5     1    1
     6    16    12    1
     7     9    12    1
     8     9     6    1
     9     9    13    1
    10     2     6    1
    11     2     1    1
    12     2     7    1
    13    12    15    1
    14     3     1    1
    15     6    11    1
    16     1     4    1
@<TRIPOS>MOLECULE
pentane
 17 16 0 0 0
SMALL
GASTEIGER

@<TRIPOS>ATOM
      1 C          -4.0432    2.5483    0.1546 C.3     1  UNL1       -0.0653
      2 C          -2.7484    3.3174   -0.0536 C.3     1  UNL1       -0.0559
      3 H          -4.9021    3.2207    0.0645 H       1  UNL1        0.0230
      4 H          -4.0725    2.0912    1.1488 H       1  UNL1        0.0230
      5 H          -4.1528    1.7552   -0.5920 H       1  UNL1        0.0230
      6 C          -1.5288    2.4040    0.0663 C.3     1  UNL1       -0.0536
      7 H          -2.6852    4.1224    0.6878 H       1  UNL1        0.0263
      8 H          -2.7652    3.7884   -1.0434 H       1  UNL1        0.0263
      9 C          -0.2286    3.1846   -0.1246 C.3     1  UNL1       -0.0559
     10 H          -1.5920    1.6061   -0.6838 H       1  UNL1        0.0265
     11 H          -1.5265    1.9213    1.0512 H       1  UNL1        0.0265
     12 C          -0.1627    3.8294   -1.4999 C.3     1  UNL1       -0.0653
     13 H           0.6299    2.5144   -0.0003 H       1  UNL1        0.0263
     14 H          -0.1459    3.9636    0.6421 H       1  UNL1        0.0263
     15 H          -0.2104    3.0736   -2.2903 H       1  UNL1        0.0230
     16 H           0.7748    4.3823   -1.6147 H       1  UNL1        0.0230
     17 H          -0.9907    4.5309   -1.6443 H       1  UNL1        0.0230
@<TRIPOS>BOND
     1    14     9    1
     2     8     2    1
     3    17    12    1
     4    10     6    1
     5     5     1    1
     6    16    12    1
     7     9    12    1
     8     9     6    1
     9     9    13    1
    10     2     6    1
    11     2     1    1
    12     2     7    1
    13    12    15    1
    14     3     1    1
    15     6    11    1
    16     1     4    1
@<TRIPOS>MOLECULE
pentane
 17 16 0 0 0
SMALL
GASTEIGER

@<TRIPOS>ATOM
      1 C          -2.8045    3.9964   -1.4128 C.3     1  UNL1       -0.0653
      2 C          -2.7484    3.3174   -0.0536 C.3     1  UNL1       -0.0559
      3 H          -3.6840    4.6446   -1.4767 H       1  UNL1        0.0230
      4 H          -2.8678    3.2576   -2.2181 H       1  UNL1        0.0230
      5 H          -1.9154    4.6126   -1.5806 H       1  UNL1        0.0230
      6 C          -1.5288    2.4040    0.0663 C.3     1  UNL1       -0.0536
      7 H          -3.6655    2.7359    0.0959 H       1  UNL1        0.0263
      8 H          -2.7185    4.0835    0.7299 H       1  UNL1        0.0263
      9 C          -0.2286    3.1846   -0.1246 C.3     1  UNL1       -0.0559
     10 H          -1.5920    1.6061   -0.6838 H       1  UNL1        0.0265
     11 H          -1.5265    1.9213    1.0512 H       1  UNL1        0.0265
     12 C           0.9866    2.2767   -0.0215 C.3     1  UNL1       -0.0653
     13 H          -0.1532    3.9735    0.6327 H       1  UNL1        0.0263
     14 H          -0.2290    3.6748   -1.1051 H       1  UNL1        0.0263
     15 H           1.0344    1.7952    0.9604 H       1  UNL1        0.0230
     16 H           1.9050    2.8554   -0.1612 H       1  UNL1        0.0230
     17 H           0.9581    1.4947   -0.7871 H       1  UNL1        0.0230
@<TRIPOS>BOND
     1    14     9    1
     2     8     2    1
     3    17    12    1
     4    10     6    1
     5     5     1    1
     6    16    12    1
     7     9    12    1
     8     9     6    1
     9     9    13    1
    10     2     6    1
    11     2     1    1
    12     2     7    1
    13    12    15    1
    14     3     1    1
    15     6    11    1
    16     1     4    1
@<TRIPOS>MOLECULE
pentane
 17 16 0 0 0
SMALL
GASTEIGER

@<TRIPOS>ATOM
      1 C          -2.7298    4.4129    1.0005 C.3     1  UNL1       -0.0653
      2 C          -2.7484    3.3174   -0.0536 C.3     1  UNL1       -0.0559
      3 H          -3.6107    5.0541    0.8964 H       1  UNL1        0.0230
      4 H          -1.8387    5.0405    0.8984 H       1  UNL1        0.0230
      5 H          -2.7368    3.9871    2.0090 H       1  UNL1        0.0230
      6 C          -1.5288    2.4040    0.0663 C.3     1  UNL1       -0.0536
      7 H          -2.7735    3.7765   -1.0488 H       1  UNL1        0.0263
      8 H          -3.6668    2.7289    0.0556 H       1  UNL1        0.0263
      9 C          -0.2286    3.1846   -0.1246 C.3     1  UNL1       -0.0559
     10 H          -1.5920    1.6061   -0.6838 H       1  UNL1        0.0265
     11 H          -1.5265    1.9213    1.0512 H       1  UNL1        0.0265
     12 C           0.9866    2.2767   -0.0215 C.3     1  UNL1       -0.0653
     13 H          -0.1532    3.9735    0.6327 H       1  UNL1        0.0263
     14 H          -0.2290    3.6748   -1.1051 H       1  UNL1        0.0263
     15 H           1.0344    1.7952    0.9604 H       1  UNL1        0.0230
     16 H           1.9050    2.8554   -0.1612 H       1  UNL1        0.0230
     17 H           0.9581    1.4947   -0.7871 H       1  UNL1        0.0230
@<TRIPOS>BOND
     1    14     9    1
     2     8     2    1
     3    17    12    1
     4    10     6    1
     5     5     1    1
     6    16    12    1
     7     9    12    1
     8     9     6    1
     9     9    13    1
    10     2     6    1
    11     2     1    1
    12     2     7    1
    13    12    15    1
    14     3     1    1
    15     6    11    1
    16     1     4    1
