@<TRIPOS>MOLECULE
propyne
 7 6 0 0 0
SMALL
GASTEIGER

@<TRIPOS>ATOM
      1 C          -2.4904    1.2499    0.0000 C.1     1  UNL1       -0.1089
      2 C          -0.4880    1.2883   -0.0000 C.1     1  UNL1       -0.1194
      3 C          -4.6255    1.2090   -0.0000 C.3     1  UNL1       -0.0028
      4 H           0.5772    1.3087   -0.0000 H       1  UNL1        0.1228
      5 H          -4.7630    0.7746   -0.9903 H       1  UNL1        0.0361
      6 H          -4.7919    2.2795    0.1213 H       1  UNL1        0.0361
      7 H          -4.7590    0.5645    0.8690 H       1  UNL1        0.0361
@<TRIPOS>BOND
     1     1     2    3
     2     1     3    1
     3     2     4    1
     4     3     5    1
     5     3     6    1
     6     3     7    1
